Infrared Spectrum: METHYL 2-ETHYL HEPTANOATE
Formula: C10 H20 O2
CAS: 816-63-7
State: LIQUID
Class: COBLENTZ
Instrument: Not specified, most likely a grating spectrometer.
Sampling: TRANSMISSION
Path length: 0.0009 CM
Resolution: 4
Origin: US INDUSTRIAL CHEMICALS COMPANY, CINCINNATI, OHIO
MICROMETERS	TRANSMITTANCE
2.007	0.924
2.04798	0.921
2.08895	0.914
2.12993	0.901
2.17091	0.892
2.21188	0.892
2.25286	0.895
2.29384	0.902
2.33481	0.902
2.37579	0.901
2.41677	0.907
2.45774	0.914
2.49872	0.916
2.5397	0.911
2.58067	0.919
2.62165	0.907
2.66263	0.909
2.7036	0.906
2.74458	0.911
2.78556	0.914
2.82653	0.899
2.86751	0.902
2.90849	0.916
2.94946	0.906
2.99044	0.911
3.03142	0.906
3.07239	0.904
3.11337	0.897
3.15435	0.894
3.19532	0.889
3.2363	0.863
3.27728	0.762
3.31825	0.621
3.35923	0.182
3.40021	0.126
3.44118	0.43
3.48216	0.332
3.52314	0.783
3.56411	0.868
3.60509	0.89
3.64607	0.88
3.68704	0.901
3.72802	0.901
3.769	0.901
3.80997	0.909
3.85095	0.911
3.89193	0.914
3.9329	0.914
3.97388	0.916
4.01486	0.919
4.05583	0.923
4.09681	0.921
4.13779	0.919
4.17876	0.911
4.21974	0.89
4.26072	0.894
4.30169	0.906
4.34267	0.921
4.38365	0.923
4.42462	0.919
4.4656	0.924
4.50658	0.921
4.54755	0.919
4.58853	0.918
4.62951	0.919
4.67048	0.919
4.71146	0.919
4.75244	0.911
4.79341	0.907
4.83439	0.911
4.87537	0.911
4.91634	0.909
4.95732	0.902
4.9983	0.902
5.03927	0.907
5.08025	0.909
5.12123	0.916
5.1622	0.919
5.20318	0.919
5.24416	0.923
5.28513	0.912
5.32611	0.923
5.36709	0.921
5.40806	0.912
5.44904	0.914
5.49002	0.907
5.53099	0.892
5.57197	0.865
5.61295	0.817
5.65392	0.733
5.6949	0.547
5.73588	0.093
5.77685	0.138
5.81783	0.558
5.85881	0.735
5.89978	0.773
5.94076	0.831
5.98174	0.878
6.02271	0.899
6.06369	0.899
6.10467	0.907
6.14564	0.899
6.18662	0.904
6.2276	0.911
6.26857	0.909
6.30955	0.902
6.35053	0.894
6.3915	0.887
6.43248	0.89
6.47346	0.889
6.51443	0.889
6.55541	0.872
6.59639	0.872
6.63736	0.875
6.67834	0.863
6.71932	0.817
6.76029	0.718
6.80127	0.421
6.84225	0.412
6.88322	0.523
6.9242	0.518
6.96518	0.634
7.00615	0.803
7.04713	0.839
7.08811	0.849
7.12908	0.831
7.17006	0.752
7.21104	0.595
7.25201	0.558
7.29299	0.662
7.33397	0.733
7.37494	0.75
7.41592	0.759
7.4569	0.764
7.49787	0.783
7.53885	0.784
7.57983	0.773
7.6208	0.766
7.66178	0.759
7.70276	0.761
7.74373	0.754
7.78471	0.689
7.82569	0.566
7.86666	0.506
7.90764	0.525
7.94862	0.554
7.98959	0.585
8.03057	0.563
8.07155	0.569
8.11252	0.593
8.1535	0.569
8.19448	0.546
8.23545	0.527
8.27643	0.407
8.31741	0.339
8.35838	0.327
8.39936	0.356
8.44034	0.412
8.48131	0.389
8.52229	0.264
8.56327	0.215
8.60424	0.312
8.64522	0.407
8.6862	0.392
8.72717	0.397
8.76815	0.547
8.80913	0.651
8.8501	0.675
8.89108	0.684
8.93206	0.691
8.97303	0.706
9.01401	0.699
9.05499	0.656
9.09596	0.629
9.13694	0.713
9.17792	0.752
9.21889	0.757
9.25987	0.771
9.30085	0.779
9.34182	0.802
9.3828	0.817
9.42378	0.836
9.46475	0.846
9.50573	0.848
9.54671	0.841
9.58768	0.839
9.62866	0.843
9.66964	0.86
9.71061	0.863
9.75159	0.86
9.79257	0.824
9.83354	0.783
9.87452	0.75
9.9155	0.733
9.95647	0.73
9.99745	0.749
10.0384	0.752
10.0794	0.778
10.1204	0.812
10.1614	0.824
10.2023	0.831
10.2433	0.839
10.2843	0.843
10.3253	0.849
10.3662	0.844
10.4072	0.865
10.4482	0.883
10.4892	0.902
10.5301	0.914
10.5711	0.919
10.6121	0.923
10.6531	0.928
10.6941	0.933
10.735	0.933
10.776	0.935
10.817	0.926
10.858	0.921
10.8989	0.909
10.9399	0.901
10.9809	0.889
11.0219	0.883
11.0628	0.889
11.1038	0.885
11.1448	0.868
11.1858	0.839
11.2267	0.825
11.2677	0.844
11.3087	0.87
11.3497	0.877
11.3907	0.882
11.4316	0.887
11.4726	0.899
11.5136	0.901
11.5546	0.901
11.5955	0.895
11.6365	0.889
11.6775	0.88
11.7185	0.873
11.7594	0.87
11.8004	0.87
11.8414	0.872
11.8824	0.873
11.9234	0.872
11.9643	0.866
12.0053	0.848
12.0463	0.829
12.0873	0.82
12.1282	0.812
12.1692	0.827
12.2102	0.843
12.2512	0.849
12.2921	0.86
12.3331	0.872
12.3741	0.863
12.4151	0.851
12.456	0.802
12.497	0.767
12.538	0.745
12.579	0.755
12.62	0.788
12.6609	0.817
12.7019	0.832
12.7429	0.846
12.7839	0.853
12.8248	0.861
12.8658	0.866
12.9068	0.866
12.9478	0.868
12.9887	0.875
13.0297	0.878
13.0707	0.877
13.1117	0.882
13.1527	0.883
13.1936	0.878
13.2346	0.872
13.2756	0.868
13.3166	0.865
13.3575	0.863
13.3985	0.87
13.4395	0.878
13.4805	0.878
13.5214	0.877
13.5624	0.889
13.6034	0.877
13.6444	0.87
13.6853	0.858
13.7263	0.851
13.7673	0.851
13.8083	0.868
13.8493	0.892
13.8902	0.902
13.9312	0.914
13.9722	0.919
14.0132	0.926
14.0541	0.931
14.0951	0.936
14.1361	0.93
14.1771	0.935
14.218	0.938
14.259	0.943
14.3	0.945
14.341	0.941
14.382	0.938
14.4229	0.935
14.4639	0.94
14.5049	0.933
14.5459	0.93
14.5868	0.931
14.6278	0.931
14.6688	0.928
14.7098	0.921
14.7507	0.919
14.7917	0.919
14.8327	0.926
14.8737	0.919
14.9146	0.918
14.9556	0.909
14.9966	0.894
15.0376	0.897
15.0786	0.911
15.1195	0.907
15.1605	0.904
15.2015	0.901
15.2425	0.897
15.2834	0.892
15.3244	0.89
15.3654	0.89
15.4064	0.883
15.4473	0.882
15.4883	0.875
15.5293	0.868
15.5703	0.866
15.6113	0.858
15.6522	0.856
15.6932	0.849
15.7342	0.849
15.7752	0.837
15.8161	0.834
15.8571	0.831
15.8981	0.82
15.9391	0.805
15.98	0.802
