Infrared Spectrum: N-(3-AMINOPROPYL)-2-MERCAPTOPROPIONAMIDE
Formula: C6 H14 N2 O S
CAS: 816-77-3
State: SOLID (MINERAL OIL MULL)
Melting point: 143-144 C
Class: COBLENTZ
Instrument: Not specified, most likely a prism, grating, or hybrid spectrometer.
Sampling: TRANSMISSION
Resolution: 4
Origin: ARTHUR D. LITTLE, INC.
1/CM	TRANSMITTANCE
648.766	0.576
657.227	0.552
665.687	0.502
674.148	0.445
682.609	0.495
691.069	0.675
699.53	0.724
707.991	0.737
716.451	0.748
724.912	0.772
733.372	0.796
741.833	0.803
750.294	0.803
758.754	0.795
767.215	0.76
775.676	0.622
784.136	0.779
792.597	0.84
801.058	0.84
809.518	0.829
817.979	0.819
826.44	0.853
834.9	0.853
843.361	0.853
851.821	0.853
860.282	0.851
868.743	0.847
877.203	0.836
885.664	0.816
894.125	0.791
902.585	0.82
911.046	0.77
919.507	0.72
927.967	0.83
936.428	0.882
944.889	0.925
953.349	0.932
961.81	0.93
970.27	0.904
978.731	0.794
987.192	0.874
995.652	0.858
1004.11	0.732
1012.57	0.856
1021.03	0.693
1029.49	0.614
1037.96	0.734
1046.42	0.839
1054.88	0.717
1063.34	0.569
1071.8	0.899
1080.26	0.923
1088.72	0.892
1097.18	0.747
1105.64	0.88
1114.1	0.925
1122.56	0.921
1131.02	0.898
1139.48	0.796
1147.94	0.758
1156.4	0.853
1164.87	0.847
1173.33	0.755
1181.79	0.696
1190.25	0.686
1198.71	0.844
1207.17	0.83
1215.63	0.787
1224.09	0.691
1232.55	0.449
1241.01	0.441
1249.47	0.645
1257.93	0.583
1266.39	0.368
1274.85	0.606
1283.31	0.755
1291.77	0.788
1300.24	0.784
1308.7	0.765
1317.16	0.7
1325.62	0.596
1334.08	0.582
1342.54	0.489
1351	0.547
1359.46	0.517
1367.92	0.507
1376.38	0.613
1384.84	0.727
1393.3	0.806
1401.76	0.805
1410.22	0.781
1418.68	0.724
1427.15	0.314
1435.61	0.362
1444.07	0.327
1452.53	0.27
1460.99	0.311
1469.45	0.485
1477.91	0.485
1486.37	0.403
1494.83	0.294
1503.29	0.287
1511.75	0.236
1520.21	0.122
1528.67	0.128
1537.13	0.303
1545.59	0.39
1554.05	0.449
1562.52	0.455
1570.98	0.555
1579.44	0.585
1587.9	0.592
1596.36	0.528
1604.82	0.416
1613.28	0.473
1621.74	0.4
1630.2	0.203
1638.66	0.108
1647.12	0.339
1655.58	0.534
1664.04	0.645
1672.5	0.719
1680.96	0.764
1689.43	0.779
1697.89	0.789
1706.35	0.796
1714.81	0.802
1723.27	0.801
1731.73	0.798
1740.19	0.798
1748.65	0.796
1757.11	0.796
1765.57	0.796
1774.03	0.795
1782.49	0.795
1790.95	0.794
1799.41	0.791
1807.87	0.785
1816.33	0.785
1824.8	0.796
1833.26	0.806
1841.72	0.803
1850.18	0.803
1858.64	0.802
1867.1	0.799
1875.56	0.799
1884.02	0.801
1892.48	0.802
1900.94	0.801
1909.4	0.799
1917.86	0.795
1926.32	0.792
1934.78	0.788
1943.24	0.777
1951.71	0.771
1960.17	0.765
1968.63	0.751
1977.09	0.734
1985.55	0.71
1994.01	0.695
2002.47	0.671
2010.93	0.637
2019.39	0.599
2027.85	0.547
2036.31	0.489
2044.77	0.434
2053.23	0.438
2061.69	0.456
2070.15	0.454
2078.61	0.414
2087.08	0.427
2095.54	0.574
2104	0.679
2112.46	0.729
2120.92	0.74
2129.38	0.741
2137.84	0.741
2146.3	0.74
2154.76	0.743
2163.22	0.743
2171.68	0.739
2180.14	0.733
2188.6	0.727
2197.06	0.722
2205.52	0.708
2213.99	0.703
2222.45	0.699
2230.91	0.693
2239.37	0.684
2247.83	0.668
2256.29	0.655
2264.75	0.647
2273.21	0.624
2281.67	0.606
2290.13	0.602
2298.59	0.593
2307.05	0.571
2315.51	0.54
2323.97	0.5
2332.43	0.471
2340.89	0.461
2349.36	0.452
2357.82	0.44
2366.28	0.435
2374.74	0.431
2383.2	0.413
2391.66	0.385
2400.12	0.349
2408.58	0.314
2417.04	0.31
2425.5	0.339
2433.96	0.338
2442.42	0.308
2450.88	0.266
2459.34	0.218
2467.8	0.181
2476.27	0.149
2484.73	0.133
2493.19	0.129
2501.65	0.129
2510.11	0.132
2518.57	0.16
2527.03	0.211
2535.49	0.221
2543.95	0.205
2552.41	0.163
2560.87	0.142
2569.33	0.135
2577.79	0.122
2586.25	0.114
2594.71	0.114
2603.17	0.115
2611.64	0.121
2620.1	0.128
2628.56	0.128
2637.02	0.125
2645.48	0.125
2653.94	0.128
2662.4	0.128
2670.86	0.126
2679.32	0.124
2687.78	0.119
2696.24	0.119
2704.7	0.119
2713.16	0.118
2721.62	0.117
2730.08	0.119
2738.54	0.128
2747.01	0.131
2755.47	0.128
2763.93	0.117
2772.39	0.104
2780.85	0.101
2789.31	0.1
2797.77	0.095
2806.23	0.093
2814.69	0.097
2823.15	0.098
2831.61	0.088
2840.07	0.047
2848.53	0.028
2856.99	0.028
2865.45	0.032
2873.92	0.036
2882.38	0.035
2890.84	0.028
2899.3	0.022
2907.76	0.021
2916.22	0.021
2924.68	0.022
2933.14	0.025
2941.6	0.035
2950.06	0.039
2958.52	0.047
2966.98	0.076
2975.44	0.156
2983.9	0.238
2992.36	0.303
3000.82	0.346
3009.29	0.386
3017.75	0.418
3026.21	0.448
3034.67	0.472
3043.13	0.488
3051.59	0.503
3060.05	0.524
3068.51	0.551
3076.97	0.578
3085.43	0.592
3093.89	0.605
3102.35	0.616
3110.81	0.63
3119.27	0.654
3127.73	0.668
3136.2	0.678
3144.66	0.682
3153.12	0.684
3161.58	0.684
3170.04	0.684
3178.5	0.685
3186.96	0.688
3195.42	0.686
3203.88	0.684
3212.34	0.682
3220.8	0.678
3229.26	0.668
3237.72	0.657
3246.18	0.647
3254.64	0.614
3263.1	0.588
3271.57	0.543
3280.03	0.482
3288.49	0.471
3296.95	0.427
3305.41	0.385
3313.87	0.337
3322.33	0.204
3330.79	0.094
3339.25	0.114
3347.71	0.28
3356.17	0.462
3364.63	0.605
3373.09	0.668
3381.55	0.709
3390.01	0.741
3398.48	0.757
3406.94	0.768
3415.4	0.775
3423.86	0.781
3432.32	0.782
3440.78	0.785
3449.24	0.794
3457.7	0.799
3466.16	0.801
3474.62	0.802
3483.08	0.808
3491.54	0.813
3500	0.818
3508.46	0.82
3516.92	0.825
3525.38	0.826
3533.85	0.826
3542.31	0.826
3550.77	0.826
3559.23	0.827
3567.69	0.827
3576.15	0.832
3584.61	0.832
3593.07	0.833
