Infrared Spectrum: 4,5-Dibromothiophene-2-sulphonyl chloride
Formula: C 4 H Br 2 Cl O 2 S 2
CAS: 81606-31-7
State: gas
Origin: EPA-IR VAPOR PHASE LIBRARY
1/CM	ABSORBANCE
549.8	0.026175
559.445	0.122895
569.09	0.165835
578.734	0.111315
588.379	0.233495
598.024	0.546695
607.669	0.174765
617.313	0.027235
626.958	0.011675
636.603	0.006155
646.248	0.005555
655.893	0.007815
665.537	0.005055
675.182	0.006805
684.827	0.021105
694.472	0.064505
704.116	0.055795
713.761	0.010385
723.406	0.004015
733.051	0.002815
742.695	0.003615
752.34	0.004745
761.985	0.003535
771.63	0.001865
781.275	0.0012538
790.919	0.002225
800.564	0.003655
810.209	0.009405
819.854	0.032265
829.498	0.027605
839.143	0.007255
848.788	0.018545
858.433	0.012635
868.078	0.003365
877.722	0.002445
887.367	0.003295
897.012	0.002395
906.657	0.003185
916.301	0.002475
925.946	0.002645
935.591	0.002415
945.236	0.003225
954.88	0.003435
964.525	0.004185
974.17	0.007285
983.815	0.020915
993.46	0.051015
1003.1	0.030345
1012.75	0.070495
1022.39	0.146765
1032.04	0.057355
1041.68	0.012745
1051.33	0.008365
1060.97	0.004005
1070.62	0.004975
1080.26	0.004705
1089.91	0.004005
1099.55	0.002155
1109.2	0.003475
1118.84	0.005155
1128.49	0.010615
1138.13	0.022315
1147.78	0.038065
1157.42	0.051285
1167.07	0.125005
1176.71	0.247005
1186.36	0.174835
1196	0.129355
1205.64	0.097195
1215.29	0.024215
1224.93	0.008535
1234.58	0.007585
1244.22	0.008735
1253.87	0.006695
1263.51	0.004595
1273.16	0.005155
1282.8	0.006655
1292.45	0.013755
1302.09	0.046715
1311.74	0.085695
1321.38	0.024925
1331.03	0.010885
1340.67	0.008705
1350.32	0.011655
1359.96	0.027895
1369.61	0.081435
1379.25	0.203845
1388.9	0.163385
1398.54	0.164145
1408.18	0.252945
1417.83	0.098065
1427.47	0.023275
1437.12	0.010465
1446.76	0.004205
1456.41	0.002565
1466.05	0.002395
1475.7	0.002835
1485.34	0.004045
1494.99	0.005975
1504.63	0.007795
1514.28	0.003395
1523.92	0.002115
1533.57	0.001525
1543.21	0.0012303
1552.86	0.0011508
1562.5	0.0010378
1572.15	0.0010902
1581.79	0.001395
1591.44	0.001335
1601.08	0.002005
1610.73	0.001955
1620.37	0.001455
1630.01	0.0011498
1639.66	0.0009916
1649.3	0.0007095
1658.95	0.0005743
1668.59	0.0008699
1678.24	0.001605
1687.88	0.002745
1697.53	0.004535
1707.17	0.004015
1716.82	0.003105
1726.46	0.002465
1736.11	0.0010852
1745.75	0.000662
1755.4	0.0006786
1765.04	0.0005413
1774.69	0.0005435
1784.33	0.000588
1793.98	0.0004902
1803.62	0.000656
1813.27	0.0007808
1822.91	0.0005645
1832.55	0.0008057
1842.2	0.001253
1851.84	0.0010218
1861.49	0.0007111
1871.13	0.0007604
1880.78	0.0006086
1890.42	0.0004615
1900.07	0.00038684
1909.71	0.00034092
1919.36	0.00033198
1929	0.0002649
1938.65	0.00038992
1948.29	0.00035241
1957.94	0.0005885
1967.58	0.0005826
1977.23	0.0008707
1986.87	0.0006332
1996.52	0.0005102
2006.16	0.0004848
2015.81	0.0005875
2025.45	0.0007613
2035.1	0.0010213
2044.74	0.0010567
2054.38	0.0008339
2064.03	0.0007269
2073.67	0.0006801
2083.32	0.0004424
2092.96	0.00037985
2102.61	0.000308682
2112.25	0.00036718
2121.9	0.0002527
2131.54	0.0002517
2141.19	0.00037682
2150.83	0.00037583
2160.48	0.0005664
2170.12	0.000675
2179.77	0.0006697
2189.41	0.0009114
2199.06	0.0007174
2208.7	0.0007162
2218.35	0.0004676
2227.99	0.0004621
2237.64	0.0004946
2247.28	0.00038542
2256.92	0.0004893
2266.57	0.000449
2276.21	0.0005553
2285.86	0.0007071
2295.5	0.000508
2305.15	0.0008768
2314.79	0.0007914
2324.44	0.0007313
2334.08	0.0007903
2343.73	0.0008719
2353.37	0.0011782
2363.02	0.001355
2372.66	0.001555
2382.31	0.001775
2391.95	0.002575
2401.6	0.003575
2411.24	0.002815
2420.89	0.001335
2430.53	0.0009392
2440.18	0.0005446
2449.82	0.0006236
2459.47	0.0004782
2469.11	0.0003763
2478.75	0.0006106
2488.4	0.000465
2498.04	0.0008527
2507.69	0.0009587
2517.33	0.001355
2526.98	0.001365
2536.62	0.0010378
2546.27	0.001365
2555.91	0.0012657
2565.56	0.001745
2575.2	0.002135
2584.85	0.001755
2594.49	0.001236
2604.14	0.0010082
2613.78	0.0010969
2623.43	0.0008447
2633.07	0.0009586
2642.72	0.0011224
2652.36	0.0008238
2662.01	0.0007811
2671.65	0.0005556
2681.29	0.0006905
2690.94	0.0005654
2700.58	0.0006928
2710.23	0.0004308
2719.87	0.0004262
2729.52	0.0004106
2739.16	0.0004793
2748.81	0.000501
2758.45	0.0005458
2768.1	0.0002937
2777.74	0.0004969
2787.39	0.0008306
2797.03	0.0008664
2806.68	0.0010235
2816.32	0.0006613
2825.97	0.00036239
2835.61	0.00039901
2845.26	0.00037807
2854.9	0.000126
2864.55	0.00034161
2874.19	0.00036497
2883.84	0.0005016
2893.48	0.00037841
2903.12	0.0004309
2912.77	0.000246
2922.41	0.0005959
2932.06	0.000523
2941.7	0.00037275
2951.35	0.00037689
2960.99	0.00036977
2970.64	0.0004914
2980.28	0.000429
2989.93	0.0004483
2999.57	0.0005939
3009.22	0.0004273
3018.86	0.00032561
3028.51	0.00029637
3038.15	0.000456
3047.8	0.00039876
3057.44	0.0005912
3067.09	0.0004335
3076.73	0.0011366
3086.38	0.001975
3096.02	0.004095
3105.67	0.011945
3115.31	0.005825
3124.95	0.001131
3134.6	0.0005115
3144.24	0.00033811
3153.89	0.0004518
3163.53	0.00029682
3173.18	0.00018
3182.82	0.0006693
3192.47	0.0004166
3202.11	0.0004984
3211.76	0.0006735
3221.4	0.00032753
3231.05	0.0005993
3240.69	0.0005959
3250.34	0.000309947
3259.98	0.00032911
3269.63	0.000165
3279.27	0.0005122
3288.92	0.0006766
3298.56	0.000453
3308.21	0.0002442
3317.85	0.0004939
3327.49	0.0004884
3337.14	0.00031584
3346.78	0.0004316
3356.43	0.00030174
3366.07	0.0002242
3375.72	0.000108
3385.36	0.00032341
3395.01	0.0005733
3404.65	0.000204
3414.3	0.0003165
3423.94	0.0004649
3433.59	0.0006883
3443.23	0.0004098
3452.88	0.0005473
3462.52	0.00035434
3472.17	0.0004925
3481.81	0.0008195
3491.46	0.0005135
3501.1	0.00036009
3510.75	0.0002501
3520.39	0.0004092
3530.04	0.0005452
3539.68	0.0008071
3549.32	0.0007852
3558.97	0.000312424
3568.61	0.0002805
3578.26	0.0004452
3587.9	0.0007623
3597.55	0.000314815
3607.19	0.0006936
3616.84	0.0005378
3626.48	0.0005714
3636.13	0.00032107
3645.77	0.0005462
3655.42	0.0004374
3665.06	0.0005962
3674.71	0.0005306
3684.35	0.0006053
3694	0.00039941
3703.64	0.0002694
3713.29	0.000284
3722.93	0.0005111
3732.58	0.000109
3742.22	0.00040041
3751.86	0.0002134
3761.51	0.00034258
3771.15	0.0005322
3780.8	0.0007432
3790.44	0.000776
3800.09	0.00035536
3809.73	0.0005107
3819.38	0.0002528
3829.02	0.0004926
3838.67	0.00040219
3848.31	0.00038417
3857.96	0.0007028
3867.6	0.0007465
3877.25	0.00011
3886.89	0.000555
3896.54	0.0006885
3906.18	0.0006062
3915.83	0.0008027
3925.47	0.0007051
3935.12	0.0008772
3944.76	0.0005855
3954.41	0.0004804
3964.05	0.000119
3973.69	0.0005388
3983.34	0.0006624
3992.98	0.0004863
