Infrared Spectrum: 4-Cyclohexene-1,2-dicarboxylic acid, di-(2-methylpropyl) ester
Formula: C16 H26 O4
CAS: 81667-22-3
State: SOLUTION (10% CCl4 FOR 2.7-7.5, 10% CS2 FOR 7.5-26 MICRON) VS SOLVENT
Class: COBLENTZ III
Instrument: DOW FOREPRISM-GRATING
Instrument parameters: BLAZED AT 3.5, 12.0, 20.0 MICRON AND CHANGED AT 5.0, 7.5, 14.9 MICRON
Sampling: TRANSMISSION
Path length: 0.011 CM, 0.011 CM
Resolution: 2
Origin: DOW CHEMICAL COMPANY
1/CM	TRANSMITTANCE
393	0.7533
402	0.7533
411	0.752
420	0.7507
429	0.7511
438	0.7547
447	0.7724
456	0.7806
465	0.7861
474	0.7912
483	0.7947
492	0.7942
501	0.79
510	0.7837
519	0.7759
528	0.7802
537	0.7997
546	0.8061
555	0.8067
564	0.8079
573	0.8098
582	0.8108
591	0.8076
600	0.8012
609	0.7918
618	0.7687
627	0.7292
636	0.6662
645	0.5412
654	0.3044
663	0.4576
672	0.6883
681	0.7764
690	0.7999
699	0.8126
708	0.8156
717	0.808
726	0.7543
735	0.8116
744	0.8324
753	0.8305
762	0.8152
771	0.7635
780	0.7692
789	0.7644
798	0.7662
807	0.7986
816	0.7796
825	0.7502
834	0.7879
843	0.8003
852	0.8068
861	0.7947
870	0.7799
879	0.7622
888	0.7404
897	0.688
906	0.6288
915	0.568
924	0.5757
933	0.5104
942	0.4916
951	0.5267
960	0.6123
969	0.65
978	0.5889
987	0.4872
996	0.3839
1005	0.5468
1014	0.3114
1023	0.1424
1032	0.1721
1041	0.4332
1050	0.6278
1059	0.5831
1068	0.7348
1077	0.7394
1086	0.7281
1095	0.6792
1104	0.5922
1113	0.5224
1122	0.6223
1131	0.5959
1140	0.4842
1149	0.1633
1158	0.0832
1167	0.1179
1176	0.0366
1185	0.0152
1194	0.0166
1203	0.0588
1212	0.1144
1221	0.1059
1230	0.1457
1239	0.113
1248	0.2008
1257	0.3118
1266	0.3592
1275	0.3318
1284	0.2151
1293	0.2332
1302	0.3423
1311	0.5251
1320	0.6241
1329	0.5364
1338	0.4808
1347	0.4745
1356	0.4076
1365	0.4793
1374	0.3132
1383	0.2414
1392	0.4277
1401	0.5803
1410	0.7045
1419	0.7088
1428	0.6666
1437	0.4421
1446	0.5034
1455	0.4765
1464	0.3482
1473	0.1543
1482	0.7114
1491	0.7734
1500	0.8083
1509	0.8297
1518	0.8418
1527	0.8479
1536	0.8557
1545	0.8583
1554	0.8569
1563	0.8516
1572	0.8489
1581	0.8498
1590	0.8472
1599	0.8382
1608	0.8253
1617	0.8158
1626	0.8166
1635	0.8145
1644	0.7978
1653	0.6843
1662	0.7701
1671	0.7533
1680	0.7045
1689	0.6061
1698	0.492
1707	0.3417
1716	0.0344
1725	0.0021
1734	0.0057
1743	0.0469
1752	0.3577
1761	0.5813
1770	0.7121
1779	0.7541
1788	0.7858
1797	0.8089
1806	0.8236
1815	0.835
1824	0.8451
1833	0.8515
1842	0.8536
1851	0.8566
1860	0.8605
1869	0.863
1878	0.8639
1887	0.8638
1896	0.8641
1905	0.8656
1914	0.8678
1923	0.8687
1932	0.8685
1941	0.8681
1950	0.8677
1959	0.8673
1968	0.8674
1977	0.8681
1986	0.8688
1995	0.8695
2004	0.8698
2013	0.8698
2022	0.8699
2031	0.8699
2040	0.8699
2049	0.87
2058	0.8704
2067	0.8707
2076	0.8712
2085	0.8715
2094	0.8718
2103	0.872
2112	0.8722
2121	0.8721
2130	0.8721
2139	0.8726
2148	0.8733
2157	0.8737
2166	0.8739
2175	0.8816
2184	0.8753
2193	0.8712
2202	0.8713
2211	0.8714
2220	0.871
2229	0.8703
2238	0.8696
2247	0.8689
2256	0.868
2265	0.8669
2274	0.8659
2283	0.865
2292	0.8645
2301	0.8639
2310	0.8636
2319	0.865
2328	0.8682
2337	0.8686
2346	0.8685
2355	0.8674
2364	0.866
2373	0.8643
2382	0.8639
2391	0.8643
2400	0.8656
2409	0.8684
2418	0.871
2427	0.873
2436	0.8737
2445	0.8744
2454	0.8734
2463	0.8719
2472	0.8705
2481	0.8688
2490	0.867
2499	0.8655
2508	0.8643
2517	0.863
2526	0.8618
2535	0.8609
2544	0.86
2553	0.8589
2562	0.8569
2571	0.855
2580	0.8551
2589	0.8581
2598	0.8577
2607	0.8551
2616	0.8513
2625	0.8497
2634	0.8509
2643	0.8521
2652	0.8509
2661	0.8502
2670	0.8503
2679	0.8506
2688	0.8516
2697	0.8496
2706	0.8424
2715	0.8284
2724	0.8271
2733	0.8348
2742	0.8318
2751	0.8278
2760	0.8265
2769	0.8263
2778	0.8258
2787	0.8219
2796	0.8106
2805	0.7894
2814	0.7828
2823	0.7693
2832	0.7208
2841	0.6215
2850	0.5484
2859	0.5698
2868	0.3641
2877	0.2186
2886	0.3372
2895	0.2814
2904	0.3146
2913	0.3107
2922	0.252
2931	0.1903
2940	0.1778
2949	0.1487
2958	0.0762
2967	0.0534
2976	0.0727
2985	0.301
2994	0.6562
3003	0.7292
3012	0.7327
3021	0.6193
3030	0.4521
3039	0.6363
3048	0.8103
3057	0.809
3066	0.8208
3075	0.8459
3084	0.8527
3093	0.8561
3102	0.8577
3111	0.8587
3120	0.8593
3129	0.8598
3138	0.8596
3147	0.8593
3156	0.8591
3165	0.8588
3174	0.8585
3183	0.8592
3192	0.8599
3201	0.8618
3210	0.8642
3219	0.8669
3228	0.8697
3237	0.8701
3246	0.8704
3255	0.87
3264	0.8692
3273	0.8685
3282	0.8676
3291	0.8668
3300	0.867
3309	0.8674
3318	0.8679
3327	0.8685
3336	0.8692
3345	0.8698
3354	0.8699
3363	0.8698
3372	0.8697
3381	0.8686
3390	0.8674
3399	0.8656
3408	0.8618
3417	0.8549
3426	0.8474
3435	0.8407
3444	0.8458
3453	0.8555
3462	0.8637
3471	0.8689
3480	0.8692
3489	0.869
3498	0.8675
3507	0.8636
3516	0.86
3525	0.8586
3534	0.8576
3543	0.8583
3552	0.8591
3561	0.8601
3570	0.8612
3579	0.8622
3588	0.8627
3597	0.8631
3606	0.8634
3615	0.8633
3624	0.8633
3633	0.8631
3642	0.8628
3651	0.8625
3660	0.8624
3669	0.8622
3678	0.8621
3687	0.8625
3696	0.8635
3705	0.8642
3714	0.8649
3723	0.8645
3732	0.8636
3741	0.8626
3750	0.8607
3759	0.8588
3768	0.858
3777	0.8571
3786	0.8563
3795	0.8556
