Infrared Spectrum: 4-Methyl-1-heptanol
Formula: C 8 H 18 O
CAS: 817-91-4
State: gas
Instrument: HP-GC/MS/IRD
Origin: NIST Mass Spectrometry Data Center
1/CM	ABSORBANCE
550	0.000216
562	0.0001296
574	0.000126
586	0.0001296
598	0.000162
610	0.000144
622	0.000126
634	4.68e-05
646	7.2e-05
658	0.000126
670	0.0001584
682	0.0001044
694	0.0002232
706	0.0001908
718	0.000252
730	0.00045
742	0.0005724
754	0.0005004
766	0.0003816
778	0.0003312
790	0.000324
802	0.0003456
814	0.0004032
826	0.0004752
838	0.0005472
850	0.000612
862	0.0007992
874	0.0009864
886	0.0013068
898	0.0016164
910	0.0016308
922	0.001458
934	0.0015552
946	0.001692
958	0.0016344
970	0.0018216
982	0.0025488
994	0.0037332
1006	0.0050112
1018	0.0066564
1030	0.008604
1042	0.0104256
1054	0.0109188
1066	0.0083268
1078	0.0049716
1090	0.002952
1102	0.0021708
1114	0.001782
1126	0.0015552
1138	0.001458
1150	0.0016524
1162	0.0016272
1174	0.0015012
1186	0.0015372
1198	0.0016236
1210	0.0016884
1222	0.0017676
1234	0.0019008
1246	0.0019836
1258	0.002034
1270	0.0020232
1282	0.0019584
1294	0.0018252
1306	0.0017532
1318	0.0017712
1330	0.0019188
1342	0.0021852
1354	0.0025416
1366	0.00342
1378	0.005076
1390	0.0050184
1402	0.002916
1414	0.0018036
1426	0.00162
1438	0.002232
1450	0.0037656
1462	0.00486
1474	0.00405
1486	0.0021708
1498	0.0010116
1510	0.0006192
1522	0.0004356
1534	0.0003384
1546	0.0002844
1558	0.0002124
1570	0.0001908
1582	0.0001584
1594	0.0001656
1606	0.0001476
1618	0.0001188
1630	0.0001188
1642	9e-05
1654	7.56e-05
1666	6.48e-05
1678	7.2e-05
1690	5.04e-05
1702	4.68e-05
1714	3.96e-05
1726	2.52e-05
1738	2.88e-05
1750	3.24e-05
1762	2.16e-05
1774	0
1786	3.24e-05
1798	2.16e-05
1810	1.08e-05
1822	3.6e-06
1834	7.2e-06
1846	0
1858	7.2e-06
1870	2.52e-05
1882	2.16e-05
1894	1.44e-05
1906	3.6e-05
1918	1.8e-05
1930	4.32e-05
1942	4.32e-05
1954	3.24e-05
1966	3.6e-05
1978	2.88e-05
1990	3.6e-05
2002	2.88e-05
2014	4.68e-05
2026	7.56e-05
2038	0.0001188
2050	0.0001224
2062	0.000108
2074	7.92e-05
2086	6.12e-05
2098	5.4e-05
2110	3.96e-05
2122	2.16e-05
2134	2.52e-05
2146	3.6e-05
2158	4.68e-05
2170	6.12e-05
2182	5.4e-05
2194	7.2e-05
2206	6.12e-05
2218	6.84e-05
2230	6.12e-05
2242	7.2e-05
2254	5.4e-05
2266	6.48e-05
2278	7.56e-05
2290	7.56e-05
2302	9.72e-05
2314	0.0001116
2326	0.0001296
2338	0.0001296
2350	0.0001188
2362	0.0001332
2374	0.0001548
2386	0.0001404
2398	0.0001404
2410	0.0001476
2422	0.0001368
2434	0.0001296
2446	0.0001368
2458	0.0001332
2470	0.0001332
2482	0.0001188
2494	0.000144
2506	0.0001512
2518	0.0001692
2530	0.0001764
2542	0.0001836
2554	0.0002268
2566	0.0002376
2578	0.0002772
2590	0.0003096
2602	0.00036
2614	0.000396
2626	0.000414
2638	0.0004536
2650	0.0004788
2662	0.0005472
2674	0.0005868
2686	0.0006588
2698	0.000702
2710	0.0008064
2722	0.000954
2734	0.0011088
2746	0.0012348
2758	0.0012204
2770	0.0013284
2782	0.0015084
2794	0.0018072
2806	0.002178
2818	0.0027432
2830	0.0037872
2842	0.006264
2854	0.0109224
2866	0.0161064
2878	0.0215352
2890	0.021402
2902	0.0220248
2914	0.0276876
2926	0.0336096
2938	0.035964
2950	0.032346
2962	0.0350424
2974	0.0277956
2986	0.0103824
2998	0.004608
3010	0.002916
3022	0.0021564
3034	0.0016632
3046	0.0012708
3058	0.0010404
3070	0.0008928
3082	0.000792
3094	0.000702
3106	0.0006264
3118	0.0005616
3130	0.000486
3142	0.0004536
3154	0.0004392
3166	0.0004104
3178	0.0003744
3190	0.0003384
3202	0.0002556
3214	0.0001944
3226	0.0001368
3238	0.000108
3250	0.0001116
3262	8.28e-05
3274	8.28e-05
3286	7.56e-05
3298	7.2e-05
3310	5.76e-05
3322	6.12e-05
3334	6.84e-05
3346	7.2e-05
3358	7.56e-05
3370	8.28e-05
3382	5.76e-05
3394	8.28e-05
3406	9.36e-05
3418	7.92e-05
3430	7.56e-05
3442	0.0001008
3454	9e-05
3466	9.36e-05
3478	0.0001044
3490	0.0001008
3502	7.2e-05
3514	9.72e-05
3526	7.56e-05
3538	5.04e-05
3550	6.12e-05
3562	6.12e-05
3574	5.4e-05
3586	7.56e-05
3598	0.0001512
3610	0.0001728
3622	0.0002736
3634	0.0004932
3646	0.0010764
3658	0.0022464
3670	0.0026748
3682	0.0015912
3694	0.0006408
3706	0.0003456
3718	0.0002088
3730	0.0002052
3742	0.0001512
3754	0.0001332
3766	0.0001044
3778	0.0001116
3790	0.000126
3802	0.0001188
3814	0.0001008
3826	0.0001404
3838	0.0001656
