Infrared Spectrum: METHYL-3Beta,7Beta,12Beta-TRIHYDROXY-5Beta-CHOLAN-24-OATE
Formula: C25 H42 O5
CAS: 81702-93-4
State: SOLID (KBr DISC)
Class: COBLENTZ III
Instrument: BECKMAN IR-7
Sampling: TRANSMISSION
Resolution: 4
Origin: THE WORCESTER FOUNDATION FOR EXPERIMENTAL BIOLOGY, Neal L. McNiven
1/CM	TRANSMITTANCE
598.545	0.576
607.277	0.503
616.009	0.472
624.74	0.56
633.472	0.634
642.204	0.683
650.936	0.722
659.668	0.773
668.4	0.82
677.131	0.851
685.863	0.857
694.595	0.862
703.327	0.874
712.059	0.891
720.791	0.894
729.522	0.881
738.254	0.823
746.986	0.851
755.718	0.891
764.45	0.901
773.182	0.897
781.913	0.828
790.645	0.862
799.377	0.861
808.109	0.873
816.841	0.859
825.573	0.883
834.304	0.855
843.036	0.88
851.768	0.8071
860.5	0.707
869.232	0.836
877.964	0.891
886.695	0.889
895.427	0.82
904.159	0.727
912.891	0.63
921.623	0.765
930.354	0.786
939.086	0.812
947.818	0.705
956.55	0.72
965.282	0.791
974.014	0.6711
982.745	0.461
991.477	0.678
1000.21	0.646
1008.94	0.629
1017.67	0.53
1026.4	0.518
1035.14	0.452
1043.87	0.424
1052.6	0.53
1061.33	0.666
1070.06	0.4701
1078.8	0.314
1087.53	0.46
1096.26	0.495
1104.99	0.559
1113.72	0.575
1122.45	0.619
1131.19	0.688
1139.92	0.644
1148.65	0.54
1157.38	0.472
1166.11	0.439
1174.85	0.38
1183.58	0.437
1192.31	0.404
1201.04	0.369
1209.77	0.464
1218.5	0.465
1227.24	0.489
1235.97	0.483
1244.7	0.496
1253.43	0.416
1262.16	0.461
1270.9	0.489
1279.63	0.46
1288.36	0.506
1297.09	0.51
1305.82	0.488
1314.55	0.471
1323.29	0.549
1332.02	0.55
1340.75	0.571
1349.48	0.611
1358.21	0.509
1366.95	0.45
1375.68	0.384
1384.41	0.41
1393.14	0.524
1401.87	0.537
1410.61	0.547
1419.34	0.529
1428.07	0.493
1436.8	0.379
1445.53	0.391
1454.26	0.431
1463	0.439
1471.73	0.505
1480.46	0.706
1489.19	0.773
1497.92	0.818
1506.66	0.825
1515.39	0.841
1524.12	0.849
1532.85	0.862
1541.58	0.852
1550.31	0.863
1559.05	0.863
1567.78	0.87
1576.51	0.866
1585.24	0.867
1593.97	0.865
1602.71	0.857
1611.44	0.846
1620.17	0.837
1628.9	0.829
1637.63	0.829
1646.36	0.83
1655.1	0.829
1663.83	0.827
1672.56	0.822
1681.29	0.804
1690.02	0.775
1698.76	0.728
1707.49	0.628
1716.22	0.5
1724.95	0.349
1733.68	0.19
1742.41	0.224
1751.15	0.503
1759.88	0.72
1768.61	0.792
1777.34	0.833
1786.07	0.861
1794.81	0.877
1803.54	0.89
1812.27	0.9
1821	0.907
1829.73	0.91
1838.46	0.913
1847.2	0.915
1855.93	0.916
1864.66	0.918
1873.39	0.92
1882.12	0.922
1890.86	0.922
1899.59	0.923
1908.32	0.923
1917.05	0.923
1925.78	0.923
1934.51	0.923
1943.25	0.923
1951.98	0.921
1960.71	0.92
1969.44	0.921
1978.17	0.922
1986.91	0.925
1995.64	0.925
2004.37	0.926
2013.1	0.926
2021.83	0.9255
2030.56	0.925
2039.3	0.925
2048.03	0.925
2056.76	0.925
2065.49	0.925
2074.22	0.924
2082.96	0.923
2091.69	0.923
2100.42	0.922
2109.15	0.9214
2117.88	0.9204
2126.62	0.9194
2135.35	0.918
2144.08	0.917
2152.81	0.9154
2161.54	0.915
2170.27	0.9134
2179.01	0.912
2187.74	0.9114
2196.47	0.91
2205.2	0.909
2213.93	0.9073
2222.67	0.9063
2231.4	0.905
2240.13	0.904
2248.86	0.903
2257.59	0.9013
2266.32	0.8993
2275.06	0.8983
2283.79	0.8963
2292.52	0.896
2301.25	0.894
2309.98	0.893
2318.72	0.891
2327.45	0.8902
2336.18	0.888
2344.91	0.8852
2353.64	0.8822
2362.37	0.88
2371.11	0.88
2379.84	0.8818
2388.57	0.8838
2397.3	0.886
2406.03	0.887
2414.77	0.888
2423.5	0.8888
2432.23	0.889
2440.96	0.8881
2449.69	0.888
2458.42	0.887
2467.16	0.886
2475.89	0.8851
2484.62	0.884
2493.35	0.883
2502.08	0.882
2510.82	0.8801
2519.55	0.878
2528.28	0.8751
2537.01	0.8731
2545.74	0.8711
2554.47	0.8691
2563.21	0.867
2571.94	0.865
2580.67	0.8601
2589.4	0.856
2598.13	0.851
2606.87	0.849
2615.6	0.846
2624.33	0.841
2633.06	0.835
2641.79	0.83
2650.52	0.825
2659.26	0.823
2667.99	0.82
2676.72	0.817
2685.45	0.816
2694.18	0.815
2702.92	0.817
2711.65	0.8181
2720.38	0.8201
2729.11	0.822
2737.84	0.823
2746.57	0.8229
2755.31	0.822
2764.04	0.8198
2772.77	0.8155
2781.5	0.8065
2790.23	0.7977
2798.97	0.7889
2807.7	0.766
2816.43	0.7448
2825.16	0.7016
2833.89	0.6661
2842.63	0.5031
2851.36	0.3322
2860.09	0.257
2868.82	0.2215
2877.55	0.2758
2886.28	0.3
2895.02	0.2761
2903.75	0.225
2912.48	0.1745
2921.21	0.1404
2929.94	0.129
2938.68	0.136
2947.41	0.1683
2956.14	0.2122
2964.87	0.2731
2973.6	0.3091
2982.33	0.3599
2991.07	0.4489
2999.8	0.561
3008.53	0.6405
3017.26	0.6945
3025.99	0.7233
3034.73	0.7426
3043.46	0.7597
3052.19	0.77
3060.92	0.7753
3069.65	0.778
3078.38	0.7786
3087.12	0.7725
3095.85	0.7683
3104.58	0.7662
3113.31	0.7636
3122.04	0.7578
3130.78	0.7486
3139.51	0.7412
3148.24	0.7356
3156.97	0.7292
3165.7	0.7157
3174.43	0.7097
3183.17	0.7016
3191.9	0.6936
3200.63	0.6822
3209.36	0.6687
3218.09	0.6611
3226.83	0.6505
3235.56	0.6391
3244.29	0.6131
3253.02	0.5965
3261.75	0.5805
3270.48	0.5654
3279.22	0.5494
3287.95	0.5353
3296.68	0.5203
3305.41	0.505
3314.14	0.4918
3322.88	0.4573
3331.61	0.4306
3340.34	0.4087
3349.07	0.3766
3357.8	0.3512
3366.53	0.3242
3375.27	0.314
3384	0.309
3392.73	0.309
3401.46	0.309
3410.19	0.3096
3418.93	0.3116
3427.66	0.314
3436.39	0.3193
3445.12	0.326
3453.85	0.3307
3462.58	0.3393
3471.32	0.3551
3480.05	0.3859
3488.78	0.4079
3497.51	0.4378
3506.24	0.4718
3514.98	0.5072
3523.71	0.5318
3532.44	0.5493
3541.17	0.5654
3549.9	0.5844
3558.63	0.6292
3567.37	0.6695
3576.1	0.6992
3584.83	0.686
3593.56	0.6978
3602.29	0.7322
3611.03	0.7653
3619.76	0.7861
3628.49	0.8075
3637.22	0.8289
3645.95	0.8378
3654.69	0.8453
3663.42	0.8468
3672.15	0.8498
3680.88	0.8538
3689.61	0.8579
3698.34	0.859
3707.08	0.8599
3715.81	0.86
3724.54	0.86
3733.27	0.86
3742	0.8619
3750.74	0.8638
3759.47	0.8641
3768.2	0.865
3776.93	0.865
3785.66	0.866
3794.39	0.866
3803.13	0.866
3811.86	0.866
3820.59	0.866
3829.32	0.865
3838.05	0.865
3846.79	0.865
3855.52	0.864
3864.25	0.864
3872.98	0.864
3881.71	0.864
3890.44	0.864
3899.18	0.865
3907.91	0.867
3916.64	0.868
3925.37	0.87
3934.1	0.87
3942.84	0.869
3951.57	0.868
3960.3	0.868
3969.03	0.868
3977.76	0.868
3986.49	0.868
3995.23	0.867
