Infrared Spectrum: Dimethazone
Formula: C 12 H 14 Cl N O 2
CAS: 81777-89-1
State: gas
Instrument: HP-GC/MS/IRD
Origin: NIST Mass Spectrometry Data Center
1/CM	ABSORBANCE
550	0.0039974
562	0.0006578
574	0.0022264
586	0.0002024
598	0.0015939
610	0.0094369
622	0.005819
634	0.0019228
646	0.0083996
658	0.0182919
670	0.0118657
682	0.0143957
694	0.0089309
706	0.0054901
718	0.0065274
730	0.0302335
742	0.0709412
754	0.0482471
766	0.0124729
778	0.0026818
790	0.0017963
802	0.0052624
814	0.0102212
826	0.0071346
838	0.0046552
850	0.0070081
862	0.0059708
874	0.0039721
886	0.0034914
898	0.0018975
910	0.0013156
922	0.0022011
934	0.0065274
946	0.0161414
958	0.021758
970	0.0347116
982	0.036179
994	0.0300311
1006	0.0507771
1018	0.0443256
1030	0.0323587
1042	0.0481965
1054	0.0576081
1066	0.0262614
1078	0.0138138
1090	0.0138138
1102	0.0124982
1114	0.01012
1126	0.0113597
1138	0.0115621
1150	0.0093357
1162	0.0154836
1174	0.0268939
1186	0.0277794
1198	0.0315744
1210	0.0297528
1222	0.0255277
1234	0.0268686
1246	0.03036
1258	0.02783
1270	0.0276023
1282	0.0295504
1294	0.0292468
1306	0.0196581
1318	0.0198605
1330	0.0308407
1342	0.0614284
1354	0.0673739
1366	0.064262
1378	0.0606694
1390	0.0755205
1402	0.0750651
1414	0.050853
1426	0.0449328
1438	0.0527758
1450	0.0513843
1462	0.0462737
1474	0.0507518
1486	0.0351164
1498	0.0125994
1510	0.0063503
1522	0.0040986
1534	0.0031878
1546	0.0032131
1558	0.0046805
1570	0.0095887
1582	0.0100441
1594	0.0091333
1606	0.0057937
1618	0.0044022
1630	0.0041239
1642	0.0043769
1654	0.0055154
1666	0.0081213
1678	0.0143957
1690	0.0249964
1702	0.0468303
1714	0.111118
1726	0.230862
1738	0.212216
1750	0.0765325
1762	0.0293733
1774	0.0144969
1786	0.0087032
1798	0.0064262
1810	0.0049335
1822	0.0038709
1834	0.0028336
1846	0.0017204
1858	0.0012397
1870	0.0012903
1882	0.0014674
1894	0.0016445
1906	0.0028842
1918	0.0029854
1930	0.0021252
1942	0.0026818
1954	0.0017204
1966	0.0007084
1978	0.000506
1990	0.0004554
2002	0.0004301
2014	0.0004554
2026	0.0003795
2038	0.000253
2050	0.0001771
2062	0.0001771
2074	0.0002277
2086	0.000253
2098	0.0003289
2110	0.0003289
2122	0.0002277
2134	0.0001771
2146	0.0001265
2158	2.53e-05
2170	2.53e-05
2182	0
2194	0
2206	7.59e-05
2218	0.0001265
2230	0.0001518
2242	0.0001771
2254	0.0001265
2266	0.0001518
2278	0.0002277
2290	0.0004048
2302	0.000506
2314	0.000759
2326	0.000759
2338	0.0004554
2350	0.0003289
2362	0.0002024
2374	0.0001771
2386	0.0002783
2398	0.0004301
2410	0.0005566
2422	0.0007843
2434	0.0009614
2446	0.0006325
2458	0.0004048
2470	0.0002783
2482	0.0002277
2494	0.0001012
2506	2.53e-05
2518	7.59e-05
2530	7.59e-05
2542	0.0001265
2554	0.0001518
2566	0.0002277
2578	0.0002024
2590	0.0002024
2602	0.0003542
2614	0.0005313
2626	0.0006072
2638	0.0005819
2650	0.0005566
2662	0.0005313
2674	0.0007843
2686	0.0008602
2698	0.0006831
2710	0.000759
2722	0.0008855
2734	0.0010879
2746	0.0011132
2758	0.0012144
2770	0.0015686
2782	0.0019228
2794	0.0022011
2806	0.0029601
2818	0.003542
2830	0.0046805
2842	0.0070587
2854	0.012397
2866	0.0307142
2878	0.0565961
2890	0.035673
2902	0.0273999
2914	0.033396
2926	0.0423775
2938	0.054395
2950	0.0427064
2962	0.0427064
2974	0.0834647
2986	0.0672727
2998	0.0214038
3010	0.0086526
3022	0.0071599
3034	0.0068057
3046	0.0058949
3058	0.0101453
3070	0.0248952
3082	0.0215303
3094	0.0087032
3106	0.003795
3118	0.002277
3130	0.0020493
3142	0.002277
3154	0.0020493
3166	0.001518
3178	0.0013409
3190	0.0011132
3202	0.0009867
3214	0.0008096
3226	0.0006578
3238	0.0004048
3250	0.0003542
3262	0.0004048
3274	0.0002277
3286	0.0002024
3298	0.0002024
3310	0.0003036
3322	0.0003289
3334	0.0003289
3346	0.0002783
3358	0.0003036
3370	0.0003542
3382	0.0004048
3394	0.0004807
3406	0.0007843
3418	0.0012397
3430	0.0017963
3442	0.0020746
3454	0.0019228
3466	0.0013662
3478	0.0008349
3490	0.0005566
3502	0.0003542
3514	0.0002783
3526	0.0002024
3538	0.0001012
3550	7.59e-05
3562	7.59e-05
3574	0.0001012
3586	7.59e-05
3598	0.0001012
3610	0.0001012
3622	7.59e-05
3634	0.0001518
3646	0.0001265
3658	0.0001012
3670	0.0001771
3682	0.0001518
3694	0.0002277
3706	0.0002783
3718	0.0002024
3730	0.0002277
3742	0.0002024
3754	0.0002783
3766	0.0003542
3778	0.0003289
3790	0.0003542
3802	0.0003542
3814	0.0004554
3826	0.0005313
3838	0.0005313
