Infrared Spectrum: 2-PROPENOIC ACID, 2-HYDROXYETHYL ESTER
Formula: C5 H8 O3
CAS: 818-61-1
State: SOLUTION (1% IN CCl4 FOR 3800-1333, 1% IN CS2 FOR 1333-450 CM^-^1) VS. SOLVENT
Class: COBLENTZ III
Instrument: DOW KBr FOREPRISM-GRATING
Instrument parameters: BLAZED AT 3.5, 12.0, 20.0 MICRON, CHANGED AT 5.0, 7.5, 14.9 MICRON
Sampling: TRANSMISSION
Path length: 0.11, 0.10 CM
Resolution: 4
Origin: DOW CHEMICAL COMPANY
1/CM	TRANSMITTANCE
449.747	0.694
458.281	0.696
466.814	0.713
475.348	0.73
483.881	0.735
492.415	0.743
500.948	0.749
509.482	0.752
518.015	0.78
526.549	0.817
535.082	0.837
543.616	0.852
552.149	0.877
560.683	0.907
569.216	0.921
577.75	0.927
586.283	0.92
594.817	0.914
603.35	0.901
611.884	0.865
620.418	0.853
628.951	0.814
637.485	0.7281
646.018	0.5891
654.552	0.488
663.085	0.564
671.619	0.671
680.152	0.741
688.686	0.833
697.219	0.856
705.753	0.87
714.286	0.882
722.82	0.901
731.353	0.926
739.887	0.952
748.42	0.97
756.954	0.98
765.487	0.979
774.021	0.964
782.555	0.915
791.088	0.803
799.622	0.7152
808.155	0.2724
816.689	0.2737
825.222	0.634
833.756	0.635
842.289	0.4181
850.823	0.137
859.356	0.094
867.89	0.137
876.423	0.179
884.957	0.2269
893.49	0.4709
902.024	0.6749
910.557	0.699
919.091	0.656
927.624	0.604
936.158	0.595
944.692	0.746
953.225	0.762
961.759	0.4919
970.292	0.1659
978.826	0.382
987.359	0.1228
995.893	0.553
1004.43	0.55
1012.96	0.47
1021.49	0.356
1030.03	0.355
1038.56	0.315
1047.09	0.19
1055.63	0.134
1064.16	0.079
1072.69	0.095
1081.23	0.076
1089.76	0.122
1098.29	0.269
1106.83	0.519
1115.36	0.671
1123.9	0.66
1132.43	0.55
1140.96	0.526
1149.5	0.617
1158.03	0.564
1166.56	0.3741
1175.1	0.081
1183.63	0.007
1192.16	0.004
1200.7	0.01
1209.23	0.044
1217.76	0.228
1226.3	0.371
1234.83	0.429
1243.36	0.439
1251.9	0.371
1260.43	0.1661
1268.97	0.036
1277.5	0.05
1286.03	0.151
1294.57	0.104
1303.1	0.0641
1311.63	0.4669
1320.17	0.646
1328.7	0.674
1337.23	0.666
1345.77	0.646
1354.3	0.575
1362.83	0.589
1371.37	0.536
1379.9	0.607
1388.43	0.584
1396.97	0.4171
1405.5	0.0661
1414.04	0.038
1422.57	0.4179
1431.1	0.55
1439.64	0.526
1448.17	0.491
1456.7	0.463
1465.24	0.505
1473.77	0.601
1482.3	0.551
1490.84	0.4291
1499.37	0.2831
1507.9	0.109
1516.44	0.051
1524.97	0.03
1533.5	0.017
1542.04	0.01
1550.57	0.007
1559.11	0.007
1567.64	0.01
1576.17	0.017
1584.71	0.023
1593.24	0.036
1601.77	0.109
1610.31	0.314
1618.84	0.398
1627.37	0.438
1635.91	0.5279
1644.44	0.3032
1652.97	0.8559
1661.51	0.886
1670.04	0.876
1678.57	0.837
1687.11	0.777
1695.64	0.672
1704.18	0.504
1712.71	0.146
1721.24	0.022
1729.78	0.01
1738.31	0.008
1746.84	0.022
1755.38	0.2589
1763.91	0.5569
1772.44	0.741
1780.98	0.808
1789.51	0.853
1798.04	0.879
1806.58	0.887
1815.11	0.893
1823.64	0.896
1832.18	0.899
1840.71	0.904
1849.25	0.896
1857.78	0.887
1866.31	0.893
1874.85	0.914
1883.38	0.938
1891.91	0.946
1900.45	0.954
1908.98	0.955
1917.51	0.955
1926.05	0.943
1934.58	0.904
1943.11	0.883
1951.65	0.904
1960.18	0.918
1968.71	0.933
1977.25	0.935
1985.78	0.935
1994.32	0.926
2002.85	0.9215
2011.38	0.912
2019.92	0.9145
2028.45	0.93
2036.98	0.9486
2045.52	0.957
2054.05	0.958
2062.58	0.969
2071.12	0.979
2079.65	0.9851
2088.18	0.9901
2096.72	0.9951
2105.25	1.001
2113.78	1.002
2122.32	1.0046
2130.85	1.005
2139.39	1.0076
2147.92	1.013
2156.45	1.011
2164.99	1.0131
2173.52	1.013
2182.05	1.014
2190.59	1.0152
2199.12	1.0139
2207.65	1.0118
2216.19	1.01
2224.72	1.0028
2233.25	0.9998
2241.79	0.9871
2250.32	0.9682
2258.85	0.9335
2267.39	0.9006
2275.92	0.8366
2284.46	0.7957
2292.99	0.7773
2301.52	0.7832
2310.06	0.8003
2318.59	0.8175
2327.12	0.8353
2335.66	0.8493
2344.19	0.8601
2352.72	0.9017
2361.26	0.9131
2369.79	0.9236
2378.32	0.9439
2386.86	0.9614
2395.39	0.9751
2403.92	0.988
2412.46	0.9964
2420.99	1.0042
2429.53	1.0077
2438.06	1.01
2446.59	1.01
2455.13	1.0095
2463.66	1.007
2472.19	1.004
2480.73	1.004
2489.26	1.0043
2497.79	1.005
2506.33	1.005
2514.86	1.004
2523.39	1.001
2531.93	1.0002
2540.46	1
2548.99	1
2557.53	1
2566.06	1
2574.59	1
2583.13	1
2591.66	0.998
2600.2	0.997
2608.73	1.001
2617.26	0.998
2625.8	0.9947
2634.33	0.9978
2642.86	0.9963
2651.4	0.992
2659.93	0.991
2668.46	0.991
2677	0.9887
2685.53	0.983
2694.06	0.977
2702.6	0.9714
2711.13	0.9696
2719.66	0.9644
2728.2	0.958
2736.73	0.957
2745.27	0.9588
2753.8	0.9628
2762.33	0.963
2770.87	0.9612
2779.4	0.9472
2787.93	0.9451
2796.47	0.935
2805	0.9217
2813.53	0.9087
2822.07	0.8954
2830.6	0.889
2839.13	0.884
2847.67	0.8481
2856.2	0.7718
2864.73	0.7048
2873.27	0.59
2881.8	0.4931
2890.34	0.4919
2898.87	0.5454
2907.4	0.6349
2915.94	0.6227
2924.47	0.5564
2933	0.518
2941.54	0.5021
2950.07	0.4411
2958.6	0.339
2967.14	0.3586
2975.67	0.4822
2984.2	0.5901
2992.74	0.6682
3001.27	0.7127
3009.8	0.8036
3018.34	0.8925
3026.87	0.9291
3035.41	0.9249
3043.94	0.881
3052.47	0.8847
3061.01	0.958
3069.54	0.954
3078.07	0.9489
3086.61	0.9557
3095.14	0.9642
3103.67	0.9601
3112.21	0.9438
3120.74	0.9615
3129.27	0.9823
3137.81	0.988
3146.34	0.991
3154.87	0.992
3163.41	0.995
3171.94	0.9976
3180.48	0.9979
3189.01	0.9944
3197.54	0.994
3206.08	0.991
3214.61	0.989
3223.14	0.988
3231.68	0.985
3240.21	0.983
3248.74	0.98
3257.28	0.979
3265.81	0.973
3274.34	0.97
3282.88	0.9655
3291.41	0.9603
3299.94	0.9565
3308.48	0.946
3317.01	0.9376
3325.55	0.9233
3334.08	0.9116
3342.61	0.9005
3351.15	0.8928
3359.68	0.8833
3368.21	0.8761
3376.75	0.8618
3385.28	0.8545
3393.81	0.8368
3402.35	0.8135
3410.88	0.7963
3419.41	0.7719
3427.95	0.7543
3436.48	0.7295
3445.01	0.694
3453.55	0.6775
3462.08	0.6635
3470.62	0.6574
3479.15	0.6317
3487.68	0.5991
3496.22	0.5734
3504.75	0.5601
3513.28	0.5532
3521.82	0.5546
3530.35	0.5668
3538.88	0.5892
3547.42	0.6318
3555.95	0.6753
3564.48	0.7229
3573.02	0.7583
3581.55	0.7748
3590.08	0.7647
3598.62	0.7268
3607.15	0.6516
3615.69	0.4512
3624.22	0.4567
3632.75	0.554
3641.29	0.7282
3649.82	0.8543
3658.35	0.9263
3666.89	0.9419
3675.42	0.9484
3683.95	0.954
3692.49	0.9678
3701.02	0.9699
3709.55	0.977
3718.09	0.9799
3726.62	0.9854
3735.15	0.9878
3743.69	0.989
3752.22	0.992
3760.76	0.9958
3769.29	0.997
3777.82	0.997
3786.36	0.9949
3794.89	0.9991
