Infrared Spectrum: Methyl hydrogen sebacate
Formula: C 11 H 20 O 4
CAS: 818-88-2
State: gas
Origin: EPA-IR VAPOR PHASE LIBRARY
1/CM	ABSORBANCE
549.8	0.003515
559.445	0.003955
569.09	0.003895
578.735	0.004135
588.38	0.004555
598.025	0.004375
607.67	0.004535
617.315	0.004355
626.96	0.004315
636.605	0.003605
646.251	0.002865
655.896	0.002135
665.541	0.001955
675.186	0.001785
684.831	0.001685
694.476	0.001595
704.121	0.001735
713.766	0.002025
723.411	0.002035
733.056	0.001805
742.701	0.001515
752.346	0.001495
761.991	0.001465
771.636	0.001295
781.281	0.001245
790.926	0.0011181
800.571	0.0011234
810.216	0.0010484
819.861	0.0011715
829.507	0.001255
839.152	0.001445
848.797	0.001435
858.442	0.001595
868.087	0.001495
877.732	0.001465
887.377	0.001215
897.022	0.0010783
906.667	0.0008458
916.312	0.0009641
925.957	0.0010368
935.602	0.0009225
945.247	0.0010236
954.892	0.0011092
964.537	0.001118
974.182	0.001415
983.827	0.001775
993.472	0.002365
1003.12	0.003045
1012.76	0.003775
1022.41	0.004335
1032.05	0.004385
1041.7	0.004185
1051.34	0.004175
1060.99	0.005225
1070.63	0.006765
1080.28	0.008835
1089.92	0.010555
1099.57	0.011665
1109.21	0.013915
1118.86	0.016945
1128.5	0.017105
1138.15	0.016165
1147.79	0.016835
1157.44	0.017995
1167.08	0.018785
1176.73	0.017695
1186.37	0.015905
1196.02	0.014875
1205.66	0.013585
1215.31	0.012255
1224.95	0.011365
1234.6	0.011115
1244.24	0.011055
1253.89	0.010225
1263.53	0.008755
1273.18	0.007115
1282.82	0.006125
1292.47	0.005655
1302.11	0.005265
1311.76	0.005015
1321.4	0.004845
1331.05	0.004865
1340.69	0.005625
1350.34	0.006505
1359.98	0.006845
1369.63	0.006355
1379.27	0.005425
1388.92	0.004145
1398.56	0.003005
1408.21	0.002645
1417.85	0.002845
1427.5	0.004075
1437.14	0.006365
1446.79	0.005335
1456.43	0.004785
1466.08	0.004065
1475.73	0.002445
1485.37	0.001485
1495.02	0.0008969
1504.66	0.0003667
1514.31	0.00026373
1523.95	0.0004302
1533.6	0.0005632
1543.24	0.0005764
1552.89	0.0005501
1562.53	0.0006246
1572.18	0.0005632
1581.82	0.0005195
1591.47	0.0004863
1601.11	0.0004519
1610.76	0.0002945
1620.4	0.0004739
1630.05	0.0004806
1639.69	0.0005571
1649.34	0.0005359
1658.98	0.0006232
1668.63	0.0007042
1678.27	0.0009032
1687.92	0.001136
1697.56	0.001585
1707.21	0.002475
1716.85	0.004115
1726.5	0.007185
1736.14	0.012555
1745.79	0.020745
1755.43	0.031355
1765.08	0.034755
1774.72	0.033955
1784.37	0.025155
1794.01	0.014555
1803.66	0.008225
1813.3	0.004165
1822.95	0.002195
1832.59	0.001315
1842.24	0.0008481
1851.88	0.0007485
1861.53	0.0005886
1871.17	0.0004924
1880.82	0.0004665
1890.46	0.0005262
1900.11	0.000472
1909.75	0.0003811
1919.4	0.0003826
1929.04	0.0004015
1938.69	0.0003621
1948.33	0.0003626
1957.98	0.0004263
1967.62	0.0004267
1977.27	0.0003862
1986.91	0.0004019
1996.56	0.0004332
2006.2	0.0004774
2015.85	0.0004782
2025.49	0.0004923
2035.14	0.000463
2044.78	0.0004211
2054.43	0.0004095
2064.07	0.0003892
2073.72	0.0003534
2083.36	0.00029821
2093.01	0.0003417
2102.65	0.00027361
2112.3	0.00027788
2121.94	0.00026731
2131.59	0.0002847
2141.23	0.00028817
2150.88	0.0002161
2160.52	0.00027164
2170.17	0.00020054
2179.81	0.000208431
2189.46	0.00021718
2199.1	0.0002628
2208.75	0.00024306
2218.39	0.00023272
2228.04	0.00024508
2237.68	0.0001342
2247.33	0.0001398
2256.97	0.0001377
2266.62	0.00020203
2276.26	0.0001643
2285.91	0.0001809
2295.55	0.0001756
2305.2	0.00023762
2314.84	0.00020068
2324.49	0.000212716
2334.13	8.9e-05
2343.78	0.0001808
2353.42	6.3e-05
2363.07	6.8e-05
2372.72	0.0001488
2382.36	0.00021841
2392.01	0.0001508
2401.65	0.00021932
2411.3	0.000166
2420.94	0.0001796
2430.59	0.0002014
2440.23	0.000153
2449.88	0.0001436
2459.52	0.0001516
2469.17	0.000161
2478.81	7.3e-05
2488.46	0.000128
2498.1	8.6e-05
2507.75	0.0001205
2517.39	0.000204204
2527.04	0.0001444
2536.68	0.0001164
2546.33	0.0001839
2555.97	0.0001786
2565.62	0.000123
2575.26	0.0001232
2584.91	0.0001096
2594.55	0.0001559
2604.2	0.0002637
2613.84	0.0001492
2623.49	0.00024354
2633.13	0.00023572
2642.78	0.000207212
2652.42	0.00028637
2662.07	0.00028169
2671.71	0.0003105
2681.36	0.00028979
2691	0.00028898
2700.65	0.00024676
2710.29	0.0003402
2719.94	0.00026017
2729.58	0.0002329
2739.23	0.00021713
2748.87	0.0001913
2758.52	0.00030294
2768.16	0.00028267
2777.81	0.0003774
2787.45	0.000453
2797.1	0.000675
2806.74	0.0006633
2816.39	0.0009652
2826.03	0.001305
2835.68	0.001835
2845.32	0.003135
2854.97	0.005975
2864.61	0.009155
2874.26	0.007985
2883.9	0.005505
2893.55	0.005005
2903.19	0.006375
2912.84	0.009975
2922.48	0.015765
2932.13	0.021995
2941.77	0.023285
2951.42	0.019495
2961.06	0.014615
2970.71	0.008205
2980.35	0.005185
2990	0.003855
2999.64	0.003025
3009.29	0.002325
3018.93	0.002075
3028.58	0.001625
3038.22	0.0011845
3047.87	0.0009714
3057.51	0.0008082
3067.16	0.000578
3076.8	0.0005909
3086.45	0.0005423
3096.09	0.0006899
3105.74	0.0004008
3115.38	0.0003948
3125.03	0.0003642
3134.67	0.000404
3144.32	0.0003084
3153.96	0.00024429
3163.61	0.00022177
3173.25	0.0001854
3182.9	0.0003777
3192.54	0.00022099
3202.19	0.0003685
3211.83	6.4e-05
3221.48	6.2e-05
3231.12	8.3e-05
3240.77	0.00028928
3250.41	0.00026403
3260.06	0.0001526
3269.7	0.0001843
3279.35	0.0001787
3289	0.0001225
3298.64	0.0001848
3308.29	0.0001784
3317.93	0.0003577
3327.58	0.0004083
3337.22	0.00028371
3346.87	0.00023137
3356.51	0.00017
3366.16	0.00027737
3375.8	7.1e-05
3385.45	0.00023154
3395.09	0.00022048
3404.74	0.00027139
3414.38	0.00029067
3424.03	0.00027148
3433.67	0.00025388
3443.32	0.00022676
3452.96	0.0003259
3462.61	0.000616
3472.25	0.0004349
3481.9	0.0004937
3491.54	0.0003629
3501.19	0.0005382
3510.83	0.0004548
3520.48	0.0004579
3530.12	0.0006055
3539.77	0.0009198
3549.41	0.0010958
3559.06	0.002505
3568.7	0.006725
3578.35	0.008865
3587.99	0.002825
3597.64	0.0010905
3607.28	0.0006816
3616.93	0.0004664
3626.57	0.000394
3636.22	0.0004347
3645.86	0.0004326
3655.51	0.000437
3665.15	0.0003293
3674.8	0.00027236
3684.44	0.0001926
3694.09	0.00023146
3703.73	0.0003825
3713.38	0.0001876
3723.02	0.00024432
3732.67	0.0003794
3742.31	0.00027243
3751.96	0.00026436
3761.6	0.0004386
3771.25	0.000210433
3780.89	0.0003639
3790.54	0.000211189
3800.18	0.00023576
3809.83	0.00030144
3819.47	0.0003421
3829.12	0.0003244
3838.76	0.00026834
3848.41	0.0003105
3858.05	0.0001796
3867.7	0.0003304
3877.34	0.0004254
3886.99	0.0004501
3896.63	0.00021711
3906.28	0.000318
3915.92	0.0003521
3925.57	0.00027155
3935.21	0.00030264
3944.86	0.0003713
3954.5	0.0004413
3964.15	0.00041
3973.79	0.0003125
3983.44	0.00043
3993.08	0.000214592
