Infrared Spectrum: N,N'-ETHYLENEBIS(3-MERCAPTOPROPIONAMIDE)
Formula: C8 H16 N2 O2 S2
CAS: 818-41-7
State: SOLID (MINERAL OIL MULL)
Melting point: 154-156 C
Class: COBLENTZ
Instrument: Not specified, most likely a prism, grating, or hybrid spectrometer.
Sampling: TRANSMISSION
Resolution: 4
Origin: ARTHUR D. LITTLE, INC.
1/CM	TRANSMITTANCE
645.578	0.639
653.741	0.645
661.905	0.658
670.068	0.652
678.231	0.66
686.394	0.693
694.558	0.721
702.721	0.713
710.884	0.682
719.047	0.654
727.211	0.629
735.374	0.617
743.537	0.625
751.701	0.645
759.864	0.708
768.027	0.767
776.19	0.824
784.354	0.845
792.517	0.834
800.68	0.827
808.843	0.827
817.007	0.856
825.17	0.884
833.333	0.898
841.497	0.9
849.66	0.903
857.823	0.905
865.986	0.903
874.15	0.899
882.313	0.886
890.476	0.867
898.639	0.849
906.803	0.854
914.966	0.843
923.129	0.833
931.293	0.742
939.456	0.763
947.619	0.841
955.782	0.849
963.946	0.841
972.109	0.824
980.272	0.796
988.435	0.678
996.599	0.59
1004.76	0.751
1012.93	0.719
1021.09	0.706
1029.25	0.77
1037.42	0.808
1045.58	0.812
1053.74	0.83
1061.9	0.849
1070.07	0.854
1078.23	0.852
1086.39	0.846
1094.56	0.848
1102.72	0.852
1110.88	0.842
1119.05	0.835
1127.21	0.831
1135.37	0.823
1143.54	0.811
1151.7	0.781
1159.86	0.731
1168.03	0.667
1176.19	0.689
1184.35	0.761
1192.52	0.767
1200.68	0.74
1208.84	0.72
1217.01	0.719
1225.17	0.683
1233.33	0.668
1241.5	0.648
1249.66	0.652
1257.82	0.582
1265.99	0.411
1274.15	0.404
1282.31	0.522
1290.48	0.522
1298.64	0.691
1306.8	0.682
1314.97	0.659
1323.13	0.74
1331.29	0.735
1339.46	0.719
1347.62	0.694
1355.78	0.668
1363.95	0.607
1372.11	0.521
1380.27	0.438
1388.44	0.491
1396.6	0.55
1404.76	0.526
1412.93	0.402
1421.09	0.299
1429.25	0.309
1437.42	0.332
1445.58	0.27
1453.74	0.218
1461.91	0.185
1470.07	0.2
1478.23	0.36
1486.4	0.504
1494.56	0.514
1502.72	0.512
1510.88	0.495
1519.05	0.453
1527.21	0.413
1535.37	0.347
1543.54	0.207
1551.7	0.107
1559.86	0.063
1568.03	0.062
1576.19	0.123
1584.35	0.238
1592.52	0.364
1600.68	0.337
1608.84	0.234
1617.01	0.097
1625.17	0.061
1633.33	0.075
1641.5	0.1
1649.66	0.123
1657.82	0.195
1665.99	0.411
1674.15	0.591
1682.31	0.728
1690.48	0.772
1698.64	0.82
1706.8	0.83
1714.97	0.834
1723.13	0.834
1731.29	0.835
1739.46	0.845
1747.62	0.86
1755.78	0.864
1763.95	0.869
1772.11	0.879
1780.27	0.881
1788.44	0.881
1796.6	0.884
1804.76	0.884
1812.93	0.887
1821.09	0.89
1829.25	0.89
1837.42	0.89
1845.58	0.89
1853.74	0.89
1861.91	0.89
1870.07	0.888
1878.23	0.888
1886.4	0.888
1894.56	0.89
1902.72	0.89
1910.89	0.888
1919.05	0.888
1927.21	0.89
1935.38	0.89
1943.54	0.89
1951.7	0.89
1959.86	0.888
1968.03	0.888
1976.19	0.89
1984.35	0.888
1992.52	0.887
2000.68	0.884
2008.84	0.886
2017.01	0.886
2025.17	0.886
2033.33	0.886
2041.5	0.886
2049.66	0.884
2057.82	0.884
2065.99	0.884
2074.15	0.884
2082.31	0.881
2090.48	0.881
2098.64	0.881
2106.8	0.881
2114.97	0.881
2123.13	0.881
2131.29	0.881
2139.46	0.881
2147.62	0.88
2155.78	0.879
2163.95	0.877
2172.11	0.876
2180.27	0.875
2188.44	0.876
2196.6	0.876
2204.76	0.875
2212.93	0.875
2221.09	0.876
2229.25	0.879
2237.42	0.879
2245.58	0.877
2253.74	0.875
2261.91	0.875
2270.07	0.872
2278.23	0.872
2286.4	0.871
2294.56	0.869
2302.72	0.868
2310.89	0.868
2319.05	0.867
2327.21	0.865
2335.38	0.864
2343.54	0.862
2351.7	0.862
2359.87	0.862
2368.03	0.862
2376.19	0.861
2384.35	0.86
2392.52	0.86
2400.68	0.86
2408.84	0.86
2417.01	0.858
2425.17	0.854
2433.33	0.848
2441.5	0.843
2449.66	0.842
2457.82	0.841
2465.99	0.839
2474.15	0.838
2482.31	0.838
2490.48	0.835
2498.64	0.831
2506.8	0.823
2514.97	0.82
2523.13	0.815
2531.29	0.81
2539.46	0.797
2547.62	0.781
2555.78	0.758
2563.95	0.774
2572.11	0.799
2580.27	0.804
2588.44	0.803
2596.6	0.801
2604.76	0.8
2612.93	0.797
2621.09	0.795
2629.25	0.788
2637.42	0.782
2645.58	0.784
2653.74	0.786
2661.91	0.785
2670.07	0.786
2678.23	0.784
2686.4	0.782
2694.56	0.781
2702.72	0.78
2710.89	0.777
2719.05	0.774
2727.21	0.773
2735.38	0.77
2743.54	0.769
2751.7	0.769
2759.87	0.769
2768.03	0.766
2776.19	0.746
2784.36	0.723
2792.52	0.705
2800.68	0.679
2808.85	0.641
2817.01	0.603
2825.17	0.533
2833.33	0.413
2841.5	0.219
2849.66	0.127
2857.82	0.126
2865.99	0.143
2874.15	0.169
2882.31	0.161
2890.48	0.109
2898.64	0.09
2906.8	0.054
2914.97	0.029
2923.13	0.024
2931.29	0.029
2939.46	0.037
2947.62	0.05
2955.78	0.061
2963.95	0.113
2972.11	0.225
2980.27	0.316
2988.44	0.449
2996.6	0.487
3004.76	0.504
3012.93	0.512
3021.09	0.508
3029.25	0.477
3037.42	0.432
3045.58	0.389
3053.74	0.333
3061.91	0.268
3070.07	0.188
3078.23	0.157
3086.4	0.166
3094.56	0.229
3102.72	0.316
3110.89	0.42
3119.05	0.497
3127.21	0.533
3135.38	0.54
3143.54	0.534
3151.7	0.512
3159.87	0.474
3168.03	0.428
3176.19	0.359
3184.36	0.282
3192.52	0.221
3200.68	0.219
3208.85	0.236
3217.01	0.236
3225.17	0.196
3233.34	0.151
3241.5	0.138
3249.66	0.149
3257.83	0.192
3265.99	0.246
3274.15	0.257
3282.31	0.256
3290.48	0.255
3298.64	0.261
3306.8	0.309
3314.97	0.388
3323.13	0.499
3331.29	0.583
3339.46	0.654
3347.62	0.698
3355.78	0.731
3363.95	0.753
3372.11	0.769
3380.27	0.786
3388.44	0.799
3396.6	0.805
3404.76	0.811
3412.93	0.814
3421.09	0.816
3429.25	0.812
3437.42	0.812
3445.58	0.815
3453.74	0.818
3461.91	0.819
3470.07	0.819
3478.23	0.819
3486.4	0.82
3494.56	0.823
