Infrared Spectrum: VITAMIN K1
Formula: C31 H46 O2
CAS: 81818-54-4
State: SOLUTION (CS2 FOR 2-15 microns, AND C2Cl4 FOR 5.5-7.3 microns)
Class: COBLENTZ III
Instrument: PERKIN-ELMER 21 (GRATING)
Instrument parameters: FILTER AT ABOUT 10 MICRONS
Sampling: TRANSMISSION
Path length: 0.1 CM
Resolution: 2
1/CM	TRANSMITTANCE
4000	0.9386
3991	0.9389
3982	0.9393
3973	0.9397
3964	0.9401
3955	0.9405
3946	0.9409
3937	0.9414
3928	0.9418
3919	0.9424
3910	0.943
3901	0.9435
3892	0.9441
3883	0.9446
3874	0.9451
3865	0.9456
3856	0.9462
3847	0.9467
3838	0.9471
3829	0.9477
3820	0.9482
3811	0.9487
3802	0.9493
3793	0.9498
3784	0.9503
3775	0.9508
3766	0.9512
3757	0.9516
3748	0.952
3739	0.9523
3730	0.9527
3721	0.953
3712	0.9534
3703	0.9538
3694	0.9541
3685	0.9544
3676	0.9547
3667	0.955
3658	0.9553
3649	0.9555
3640	0.9555
3631	0.9555
3622	0.9555
3613	0.9552
3604	0.9545
3595	0.9539
3586	0.9531
3577	0.9521
3568	0.9511
3559	0.9501
3550	0.949
3541	0.9478
3532	0.9474
3523	0.947
3514	0.9468
3505	0.9478
3496	0.949
3487	0.9501
3478	0.9511
3469	0.9518
3460	0.9525
3451	0.9533
3442	0.9541
3433	0.9542
3424	0.9543
3415	0.9543
3406	0.9542
3397	0.954
3388	0.9538
3379	0.9532
3370	0.9521
3361	0.949
3352	0.9404
3343	0.931
3334	0.9239
3325	0.9224
3316	0.9218
3307	0.922
3298	0.9258
3289	0.9294
3280	0.9323
3271	0.9341
3262	0.9359
3253	0.9375
3244	0.9387
3235	0.9398
3226	0.9399
3217	0.9398
3208	0.9384
3199	0.937
3190	0.9355
3181	0.9342
3172	0.9332
3163	0.9323
3154	0.932
3145	0.9318
3136	0.9315
3127	0.9305
3118	0.9136
3109	0.8941
3100	0.8805
3091	0.8731
3082	0.8682
3073	0.8634
3064	0.8583
3055	0.8525
3046	0.8466
3037	0.8331
3028	0.8178
3019	0.7799
3010	0.7134
3001	0.6401
2992	0.546
2983	0.4364
2974	0.3374
2965	0.2379
2956	0.145
2947	0.1152
2938	0.1096
2929	0.1075
2920	0.1067
2911	0.1146
2902	0.1626
2893	0.2275
2884	0.2319
2875	0.2358
2866	0.2462
2857	0.29
2848	0.3764
2839	0.4767
2830	0.5778
2821	0.6447
2812	0.703
2803	0.7435
2794	0.7814
2785	0.8122
2776	0.8571
2767	0.8756
2758	0.8837
2749	0.8874
2740	0.8905
2731	0.8932
2722	0.8942
2713	0.8951
2704	0.897
2695	0.8995
2686	0.9021
2677	0.9046
2668	0.906
2659	0.9075
2650	0.9089
2641	0.9106
2632	0.9121
2623	0.9136
2614	0.9149
2605	0.9162
2596	0.9181
2587	0.921
2578	0.9257
2569	0.9314
2560	0.9345
2551	0.9359
2542	0.9361
2533	0.9362
2524	0.9368
2515	0.9382
2506	0.9396
2497	0.9418
2488	0.9441
2479	0.9456
2470	0.9471
2461	0.9488
2452	0.95
2443	0.9509
2434	0.9518
2425	0.9525
2416	0.9523
2407	0.9521
2398	0.9517
2389	0.9512
2380	0.9506
2371	0.9499
2362	0.949
2353	0.9451
2344	0.9418
2335	0.9402
2326	0.9392
2317	0.9384
2308	0.9378
2299	0.9371
2290	0.9351
2281	0.9328
2272	0.931
2263	0.9293
2254	0.9284
2245	0.9286
2236	0.9284
2227	0.9251
2218	0.923
2209	0.9216
2200	0.9213
2191	0.921
2182	0.9207
2173	0.9204
2164	0.9201
2155	0.9197
2146	0.9195
2137	0.9191
2128	0.9191
2119	0.919
2110	0.9188
2101	0.9221
2092	0.93
2083	0.9386
2074	0.9458
2065	0.9514
2056	0.9553
2047	0.9558
2038	0.9567
2029	0.9578
2020	0.9587
2011	0.9578
2002	0.9574
1993	0.9509
1984	0.9442
1975	0.9467
1966	0.9411
1957	0.94
1948	0.9435
1939	0.9466
1930	0.9496
1921	0.9525
1912	0.9553
1903	0.9582
1894	0.9531
1885	0.9495
1876	0.948
1867	0.9436
1858	0.9445
1849	0.9467
1840	0.9489
1831	0.951
1822	0.9515
1813	0.9468
1804	0.9424
1795	0.934
1786	0.9321
1777	0.9314
1768	0.9247
1759	0.9091
1750	0.899
1741	0.8985
1732	0.8939
1723	0.8728
1714	0.8644
1705	0.8511
1696	0.7765
1687	0.5397
1678	0.1742
1669	0.0528
1660	0.3773
1651	0.7353
1642	0.7857
1633	0.7168
1624	0.5687
1615	0.7051
1606	0.4484
1597	0.5573
1588	0.7233
1579	0.8328
1570	0.8932
1561	0.9106
1552	0.9277
1543	0.9306
1534	0.9307
1525	0.9292
1516	0.9264
1507	0.9218
1498	0.9018
1489	0.8673
1480	0.7615
1471	0.5027
1462	0.4
1453	0.5727
1444	0.6234
1435	0.6551
1426	0.7494
1417	0.8189
1408	0.8484
1399	0.8388
1390	0.7094
1381	0.411
1372	0.4648
1363	0.571
1354	0.6919
1345	0.5972
1336	0.4269
1327	0.4251
1318	0.5335
1309	0.4682
1300	0.1391
1291	0.0985
1282	0.4101
1273	0.638
1264	0.7124
1255	0.7442
1246	0.8015
1237	0.8128
1228	0.7928
1219	0.8058
1210	0.8307
1201	0.8436
1192	0.8185
1183	0.8058
1174	0.7792
1165	0.7968
1156	0.7915
1147	0.8387
1138	0.8218
1129	0.8271
1120	0.8601
1111	0.8753
1102	0.8762
1093	0.8435
1084	0.8609
1075	0.8409
1066	0.8267
1057	0.8237
1048	0.8383
1039	0.8691
1030	0.867
1021	0.8659
1012	0.8721
1003	0.8653
994	0.8474
985	0.8449
976	0.6908
967	0.6371
958	0.789
949	0.7286
940	0.8099
931	0.8581
922	0.8831
913	0.9003
904	0.8978
895	0.8421
886	0.8058
877	0.847
868	0.851
859	0.8385
850	0.8362
841	0.8432
832	0.8703
823	0.8934
814	0.8978
805	0.8997
796	0.8996
787	0.6998
778	0.8046
769	0.8618
760	0.9012
751	0.911
742	0.8631
733	0.8211
724	0.816
715	0.3287
706	0.7022
697	0.8225
688	0.709
679	0.8785
670	0.8755
