Infrared Spectrum: 3Beta,7Beta,12Beta-TRIHYDROXY-5Beta-CHOLAN-24-OIC ACID
Formula: C24 H40 O5
CAS: 81873-90-7
State: SOLID (KBr DISC)
Class: COBLENTZ III
Instrument: BECKMAN IR-7
Sampling: TRANSMISSION
Resolution: 4
Origin: THE WORCESTER FOUNDATION FOR EXPERIMENTAL BIOLOGY, Neal L. McNiven
1/CM	TRANSMITTANCE
599.271	0.518
608.021	0.484
616.771	0.494
625.521	0.56
634.271	0.685
643.021	0.746
651.771	0.814
660.521	0.864
669.271	0.854
678.021	0.8551
686.771	0.853
695.521	0.891
704.271	0.895
713.021	0.901
721.771	0.89
730.521	0.84
739.271	0.862
748.021	0.866
756.771	0.869
765.521	0.87
774.271	0.841
783.021	0.815
791.771	0.841
800.521	0.852
809.271	0.85
818.021	0.861
826.771	0.86
835.521	0.836
844.271	0.832
853.021	0.767
861.771	0.796
870.521	0.842
879.271	0.83
888.021	0.827
896.771	0.7311
905.521	0.699
914.271	0.497
923.021	0.69
931.771	0.717
940.521	0.738
949.271	0.654
958.021	0.711
966.771	0.712
975.521	0.583
984.271	0.5839
993.021	0.694
1001.77	0.632
1010.52	0.593
1019.27	0.553
1028.02	0.528
1036.77	0.445
1045.52	0.358
1054.27	0.663
1063.02	0.646
1071.77	0.4251
1080.52	0.402
1089.27	0.389
1098.02	0.469
1106.77	0.689
1115.52	0.654
1124.27	0.694
1133.02	0.755
1141.77	0.721
1150.52	0.654
1159.27	0.641
1168.02	0.619
1176.77	0.593
1185.52	0.601
1194.27	0.555
1203.02	0.582
1211.77	0.598
1220.52	0.553
1229.27	0.475
1238.02	0.423
1246.77	0.371
1255.52	0.375
1264.27	0.508
1273.02	0.544
1281.77	0.539
1290.52	0.485
1299.27	0.54
1308.02	0.547
1316.77	0.559
1325.52	0.54
1334.27	0.505
1343.02	0.599
1351.77	0.604
1360.52	0.521
1369.27	0.401
1378.02	0.351
1386.77	0.478
1395.52	0.478
1404.27	0.481
1413.02	0.56
1421.77	0.588
1430.52	0.565
1439.27	0.49
1448.02	0.415
1456.77	0.49
1465.52	0.46
1474.27	0.566
1483.02	0.734
1491.77	0.769
1500.52	0.805
1509.27	0.822
1518.02	0.84
1526.77	0.855
1535.52	0.861
1544.27	0.863
1553.02	0.868
1561.77	0.871
1570.52	0.872
1579.27	0.87
1588.02	0.869
1596.77	0.861
1605.52	0.845
1614.27	0.827
1623.02	0.811
1631.77	0.801
1640.52	0.788
1649.27	0.775
1658.02	0.763
1666.77	0.728
1675.52	0.676
1684.27	0.635
1693.02	0.526
1701.77	0.324
1710.52	0.109
1719.27	0.233
1728.02	0.442
1736.77	0.566
1745.52	0.661
1754.27	0.739
1763.02	0.803
1771.77	0.834
1780.52	0.85
1789.27	0.861
1798.02	0.869
1806.77	0.873
1815.52	0.875
1824.27	0.877
1833.02	0.882
1841.77	0.886
1850.52	0.888
1859.27	0.89
1868.02	0.893
1876.77	0.896
1885.52	0.898
1894.27	0.901
1903.02	0.901
1911.77	0.904
1920.52	0.905
1929.27	0.906
1938.02	0.906
1946.77	0.909
1955.52	0.91
1964.27	0.911
1973.02	0.911
1981.77	0.912
1990.52	0.911
1999.27	0.909
2008.02	0.908
2016.77	0.908
2025.52	0.907
2034.27	0.907
2043.02	0.906
2051.77	0.906
2060.52	0.906
2069.27	0.906
2078.02	0.905
2086.77	0.904
2095.52	0.904
2104.27	0.903
2113.02	0.902
2121.77	0.901
2130.52	0.901
2139.27	0.9
2148.02	0.899
2156.77	0.898
2165.52	0.898
2174.27	0.8962
2183.02	0.896
2191.77	0.896
2200.52	0.8942
2209.27	0.8932
2218.02	0.893
2226.77	0.8922
2235.52	0.891
2244.27	0.89
2253.02	0.89
2261.77	0.8882
2270.52	0.888
2279.27	0.8862
2288.02	0.885
2296.77	0.8842
2305.52	0.8832
2314.27	0.8812
2323.02	0.8775
2331.77	0.875
2340.52	0.872
2349.27	0.8702
2358.02	0.869
2366.77	0.867
2375.52	0.8662
2384.27	0.8631
2393.02	0.8612
2401.77	0.86
2410.52	0.8543
2419.27	0.8483
2428.02	0.8433
2436.77	0.8364
2445.52	0.8275
2454.27	0.8251
2463.02	0.8223
2471.77	0.8164
2480.52	0.8054
2489.27	0.7991
2498.02	0.797
2506.77	0.7912
2515.52	0.787
2524.27	0.7726
2533.02	0.7671
2541.77	0.765
2550.52	0.7613
2559.27	0.7532
2568.02	0.7472
2576.77	0.7412
2585.52	0.7352
2594.27	0.7283
2603.02	0.7155
2611.77	0.7072
2620.52	0.7031
2629.27	0.7011
2638.02	0.7
2646.77	0.699
2655.52	0.699
2664.27	0.699
2673.02	0.6961
2681.77	0.6931
2690.52	0.6911
2699.27	0.69
2708.02	0.689
2716.77	0.688
2725.52	0.6851
2734.27	0.6792
2743.02	0.6741
2751.77	0.6701
2760.52	0.6622
2769.27	0.6511
2778.02	0.6402
2786.77	0.6252
2795.52	0.586
2804.27	0.5395
2813.02	0.5134
2821.77	0.4785
2830.52	0.4253
2839.27	0.267
2848.02	0.1674
2856.77	0.151
2865.52	0.1876
2874.27	0.2138
2883.02	0.217
2891.77	0.1714
2900.52	0.1281
2909.27	0.1111
2918.02	0.107
2926.77	0.1249
2935.52	0.14
2944.27	0.149
2953.02	0.162
2961.77	0.2111
2970.52	0.2612
2979.27	0.3401
2988.02	0.396
2996.77	0.4341
3005.52	0.4581
3014.27	0.473
3023.02	0.482
3031.77	0.489
3040.52	0.499
3049.27	0.502
3058.02	0.502
3066.77	0.502
3075.52	0.5
3084.27	0.4959
3093.02	0.493
3101.77	0.492
3110.52	0.4849
3119.27	0.4729
3128.02	0.4569
3136.77	0.4486
3145.52	0.4366
3154.27	0.4207
3163.02	0.4007
3171.77	0.3848
3180.52	0.3789
3189.27	0.3718
3198.02	0.367
3206.77	0.3671
3215.52	0.3701
3224.27	0.3732
3233.02	0.3761
3241.77	0.379
3250.52	0.3789
3259.27	0.378
3268.02	0.378
3276.77	0.3769
3285.52	0.3682
3294.27	0.3488
3303.02	0.3373
3311.77	0.315
3320.52	0.2871
3329.27	0.2795
3338.02	0.2925
3346.77	0.3071
3355.52	0.3165
3364.27	0.3291
3373.02	0.3404
3381.77	0.35
3390.52	0.3533
3399.27	0.3614
3408.02	0.3701
3416.77	0.3772
3425.52	0.3872
3434.27	0.3925
3443.02	0.4084
3451.77	0.4133
3460.52	0.4271
3469.27	0.4334
3478.02	0.4455
3486.77	0.4557
3495.52	0.462
3504.27	0.463
3513.02	0.4253
3521.77	0.311
3530.52	0.3734
3539.27	0.4677
3548.02	0.5283
3556.77	0.5801
3565.52	0.6382
3574.27	0.6695
3583.02	0.6915
3591.77	0.7093
3600.52	0.7333
3609.27	0.7512
3618.02	0.7689
3626.77	0.784
3635.52	0.8069
3644.27	0.8244
3653.02	0.8322
3661.77	0.8362
3670.52	0.838
3679.27	0.8404
3688.02	0.8448
3696.77	0.8548
3705.52	0.8602
3714.27	0.862
3723.02	0.8632
3731.77	0.864
3740.52	0.8652
3749.27	0.867
3758.02	0.868
3766.77	0.869
3775.52	0.869
3784.27	0.869
3793.02	0.87
3801.77	0.87
3810.52	0.87
3819.27	0.87
3828.02	0.87
3836.77	0.87
3845.52	0.87
3854.27	0.87
3863.02	0.87
3871.77	0.87
3880.52	0.87
3889.27	0.87
3898.02	0.871
3906.77	0.871
3915.52	0.871
3924.27	0.872
3933.02	0.8723
3941.77	0.873
3950.52	0.873
3959.27	0.873
3968.02	0.873
3976.77	0.873
3985.52	0.873
3994.27	0.873
4003.02	0.873
4011.77	0.873
