Infrared Spectrum: Benzyltrichloroacetimidate
Formula: C 9 H 8 Cl 3 N O
CAS: 81927-55-1
State: gas
Origin: EPA-IR VAPOR PHASE LIBRARY
1/CM	ABSORBANCE
549.9	0.00403
559.547	0.00453
569.193	0.00605
578.84	0.01066
588.486	0.01093
598.133	0.00845
607.779	0.00734
617.426	0.00848
627.072	0.01237
636.719	0.02436
646.365	0.04703
656.012	0.04348
665.658	0.02045
675.305	0.01939
684.951	0.02769
694.598	0.03866
704.245	0.04014
713.891	0.0385
723.538	0.03162
733.184	0.03545
742.831	0.04283
752.477	0.03333
762.124	0.02034
771.77	0.01791
781.417	0.02802
791.063	0.0704
800.71	0.13748
810.356	0.10864
820.003	0.08379
829.649	0.08842
839.296	0.05519
848.943	0.02798
858.589	0.01731
868.236	0.01359
877.882	0.01295
887.529	0.01417
897.175	0.01295
906.822	0.01121
916.468	0.00976
926.115	0.00871
935.761	0.00937
945.408	0.0113
955.054	0.01516
964.701	0.02568
974.347	0.05096
983.994	0.08504
993.64	0.09274
1003.29	0.06369
1012.93	0.03318
1022.58	0.02559
1032.23	0.02621
1041.87	0.02768
1051.52	0.04176
1061.17	0.07998
1070.81	0.15407
1080.46	0.18478
1090.11	0.11854
1099.75	0.05191
1109.4	0.02512
1119.05	0.01632
1128.69	0.01319
1138.34	0.01085
1147.99	0.00803
1157.63	0.00595
1167.28	0.00554
1176.92	0.00653
1186.57	0.00695
1196.22	0.00775
1205.86	0.01247
1215.51	0.01072
1225.16	0.01003
1234.8	0.01245
1244.45	0.01699
1254.1	0.02733
1263.74	0.04889
1273.39	0.09242
1283.04	0.1543
1292.68	0.1683
1302.33	0.14493
1311.98	0.10739
1321.62	0.05579
1331.27	0.03162
1340.92	0.02124
1350.56	0.01559
1360.21	0.0145
1369.86	0.02032
1379.5	0.02798
1389.15	0.01716
1398.79	0.00828
1408.44	0.00652
1418.09	0.00688
1427.73	0.00801
1437.38	0.01012
1447.03	0.01429
1456.67	0.01736
1466.32	0.01577
1475.97	0.01003
1485.61	0.00844
1495.26	0.01336
1504.91	0.0106
1514.55	0.00505
1524.2	0.0041
1533.85	0.0038962
1543.49	0.0037309
1553.14	0.0037163
1562.79	0.00422
1572.43	0.0053
1582.08	0.00686
1591.73	0.00786
1601.37	0.00873
1611.02	0.00982
1620.67	0.01126
1630.31	0.01413
1639.96	0.01958
1649.6	0.0372
1659.25	0.09055
1668.9	0.14785
1678.54	0.06861
1688.19	0.02179
1697.84	0.0116
1707.48	0.00854
1717.13	0.00729
1726.78	0.0063
1736.42	0.00558
1746.07	0.00544
1755.72	0.00546
1765.36	0.00551
1775.01	0.00542
1784.66	0.00513
1794.3	0.00577
1803.95	0.00523
1813.6	0.0039448
1823.24	0.0034307
1832.89	0.0032169
1842.54	0.00314
1852.18	0.0034134
1861.83	0.0036275
1871.47	0.0038239
1881.12	0.0039273
1890.77	0.0035374
1900.41	0.0033076
1910.06	0.0031548
1919.71	0.0033325
1929.35	0.0037478
1939	0.00426
1948.65	0.00483
1958.29	0.00509
1967.94	0.0039448
1977.59	0.0033085
1987.23	0.0030818
1996.88	0.002847
2006.53	0.002784
2016.17	0.002846
2025.82	0.002749
2035.47	0.002692
2045.11	0.002608
2054.76	0.00255
2064.41	0.002502
2074.05	0.002439
2083.7	0.002498
2093.35	0.00256
2102.99	0.002615
2112.64	0.002666
2122.28	0.002748
2131.93	0.0029273
2141.58	0.00300095
2151.22	0.0029087
2160.87	0.002718
2170.52	0.002508
2180.16	0.002386
2189.81	0.002249
2199.46	0.00227
2209.1	0.002303
2218.75	0.00231
2228.4	0.002268
2238.04	0.002324
2247.69	0.002313
2257.34	0.002369
2266.98	0.002372
2276.63	0.002394
2286.28	0.002485
2295.92	0.002383
2305.57	0.002415
2315.22	0.00258
2324.86	0.002479
2334.51	0.002552
2344.16	0.00258
2353.8	0.002584
2363.45	0.002512
2373.09	0.002426
2382.74	0.002254
2392.39	0.002043
2402.03	0.002
2411.68	0.0019
2421.33	0.00194
2430.97	0.0019
2440.62	0.00188
2450.27	0.00185
2459.91	0.00183
2469.56	0.00181
2479.21	0.00179
2488.85	0.00179
2498.5	0.00179
2508.15	0.00182
2517.79	0.00187
2527.44	0.00195
2537.09	0.001964
2546.73	0.001993
2556.38	0.00215
2566.03	0.002209
2575.67	0.002288
2585.32	0.002275
2594.96	0.002203
2604.61	0.002162
2614.26	0.00199
2623.9	0.00183
2633.55	0.00175
2643.2	0.00174
2652.84	0.0018
2662.49	0.00176
2672.14	0.00166
2681.78	0.00153
2691.43	0.00156
2701.08	0.00159
2710.72	0.00158
2720.37	0.00171
2730.02	0.001973
2739.66	0.002207
2749.31	0.002198
2758.96	0.00181
2768.6	0.00155
2778.25	0.00148
2787.9	0.0015
2797.54	0.0016
2807.19	0.00166
2816.84	0.00168
2826.48	0.00184
2836.13	0.00193
2845.77	0.00181
2855.42	0.00188
2865.07	0.002244
2874.71	0.0031409
2884.36	0.00438
2894.01	0.0057
2903.65	0.00516
2913.3	0.00429
2922.95	0.00436
2932.59	0.00547
2942.24	0.00817
2951.89	0.01289
2961.53	0.01548
2971.18	0.01083
2980.83	0.00724
2990.47	0.00545
3000.12	0.00451
3009.77	0.00488
3019.41	0.00777
3029.06	0.01409
3038.71	0.02147
3048.35	0.01812
3058	0.01448
3067.64	0.02162
3077.29	0.02333
3086.94	0.01317
3096.58	0.01001
3106.23	0.00714
3115.88	0.00458
3125.52	0.002201
3135.17	0.00092
3144.82	0.00059
3154.46	0.00054
3164.11	0.00053
3173.76	0.00061
3183.4	0.00033
3193.05	6e-05
3202.7	0.00014
3212.34	0.00024
3221.99	0.00017
3231.64	0.00022
3241.28	0.00014
3250.93	0.00026
3260.58	0.0002
3270.22	0.0002
3279.87	0.00028
3289.52	0.00052
3299.16	0.00057
3308.81	0.00072
3318.45	0.00114
3328.1	0.00149
3337.75	0.002083
3347.39	0.00425
3357.04	0.01217
3366.69	0.02568
3376.33	0.01135
3385.98	0.0036036
3395.63	0.002114
3405.27	0.00156
3414.92	0.0011
3424.57	0.00121
3434.21	0.00125
3443.86	0.00111
3453.51	0.00109
3463.15	0.00081
3472.8	0.00082
3482.45	0.00093
3492.09	0.00076
3501.74	0.00091
3511.39	0.00115
3521.03	0.001
3530.68	0.00147
3540.33	0.00123
3549.97	0.00155
3559.62	0.00159
3569.26	0.00135
3578.91	0.00119
3588.56	0.00102
3598.2	0.00113
3607.85	0.00121
3617.5	0.00114
3627.14	0.00119
3636.79	0.00124
3646.44	0.00136
3656.08	0.0015
3665.73	0.00168
3675.38	0.00155
3685.02	0.00166
3694.67	0.00146
3704.32	0.00128
3713.96	0.00138
3723.61	0.00139
3733.26	0.00139
3742.9	0.00131
3752.55	0.00131
3762.2	0.00122
3771.84	0.00149
3781.49	0.00149
3791.13	0.00161
3800.78	0.00162
3810.43	0.00164
3820.07	0.00152
3829.72	0.0014
3839.37	0.0015
3849.01	0.00145
3858.66	0.00165
3868.31	0.00153
3877.95	0.00164
3887.6	0.00163
3897.25	0.00161
3906.89	0.00151
3916.54	0.00163
3926.19	0.0016
3935.83	0.00174
3945.48	0.00161
3955.13	0.00166
3964.77	0.00157
3974.42	0.00163
3984.07	0.0016
3993.71	0.00154
