Infrared Spectrum: (+)-Noe's reagent,(+)-MBF-OH dimer
Formula: C 24 H 38 O 3
CAS: 81955-10-4
State: gas
Origin: EPA-IR VAPOR PHASE LIBRARY
1/CM	ABSORBANCE
549.8	0.002826
559.445	0.001906
569.09	0.001796
578.734	0.0012152
588.379	0.001586
598.024	0.0007986
607.669	0.0008575
617.313	0.0007228
626.958	0.0009187
636.603	0.0005214
646.248	0.0011327
655.893	0.0012184
665.537	0.0011789
675.182	0.0013205
684.827	0.002486
694.472	0.007266
704.116	0.011636
713.761	0.019136
723.406	0.019546
733.051	0.008576
742.695	0.003676
752.34	0.006856
761.985	0.009506
771.63	0.005906
781.275	0.003866
790.919	0.003146
800.564	0.001786
810.209	0.0015099
819.854	0.003146
829.498	0.004876
839.143	0.003856
848.788	0.002746
858.433	0.0014853
868.078	0.0014922
877.722	0.003146
887.367	0.004516
897.012	0.002946
906.657	0.001906
916.301	0.002496
925.946	0.003616
935.591	0.004056
945.236	0.005196
954.88	0.007016
964.525	0.013336
974.17	0.024316
983.815	0.026476
993.46	0.013946
1003.1	0.009216
1012.75	0.013256
1022.39	0.024966
1032.04	0.025046
1041.68	0.010996
1051.33	0.009296
1060.97	0.014326
1070.62	0.011596
1080.26	0.009716
1089.91	0.009976
1099.55	0.005736
1109.2	0.003686
1118.84	0.005866
1128.49	0.015916
1138.13	0.035916
1147.78	0.033346
1157.42	0.011056
1167.07	0.004126
1176.71	0.003666
1186.36	0.003006
1196	0.003346
1205.64	0.003356
1215.29	0.002516
1224.93	0.002986
1234.58	0.001966
1244.22	0.003026
1253.87	0.004226
1263.51	0.003486
1273.16	0.003306
1282.8	0.003706
1292.45	0.003636
1302.09	0.003026
1311.74	0.002216
1321.38	0.001876
1331.03	0.002366
1340.67	0.002416
1350.32	0.003516
1359.96	0.006296
1369.61	0.009816
1379.25	0.012046
1388.9	0.011326
1398.54	0.008116
1408.18	0.003406
1417.83	0.002686
1427.47	0.003386
1437.12	0.005656
1446.76	0.008786
1456.41	0.010826
1466.05	0.012276
1475.7	0.013816
1485.34	0.010256
1494.99	0.004856
1504.63	0.002556
1514.28	0.001866
1523.92	0.0014134
1533.57	0.0012388
1543.21	0.0012885
1552.86	0.0015018
1562.5	0.001836
1572.15	0.002976
1581.79	0.005926
1591.44	0.012216
1601.08	0.019716
1610.73	0.020086
1620.37	0.010966
1630.01	0.003176
1639.66	0.001559
1649.3	0.0013935
1658.95	0.0011576
1668.59	0.0012402
1678.24	0.0011236
1687.88	0.0010996
1697.53	0.0009754
1707.17	0.0009122
1716.82	0.0009091
1726.46	0.0009199
1736.11	0.0009627
1745.75	0.0009625
1755.4	0.0015397
1765.04	0.002436
1774.69	0.002256
1784.33	0.0011065
1793.98	0.0009025
1803.62	0.0006968
1813.27	0.0008929
1822.91	0.00066473
1832.55	0.0006989
1842.2	0.0007698
1851.84	0.0008622
1861.49	0.000829
1871.13	0.0008188
1880.78	0.00078
1890.42	0.0008508
1900.07	0.00063824
1909.71	0.0008783
1919.36	0.0007096
1929	0.0008195
1938.65	0.0009125
1948.29	0.0008043
1957.94	0.0007919
1967.58	0.0007996
1977.23	0.0009738
1986.87	0.0009759
1996.52	0.001116
2006.16	0.001025
2015.81	0.0010165
2025.45	0.0010597
2035.1	0.0011417
2044.74	0.0011268
2054.38	0.0008202
2064.03	0.0011092
2073.67	0.000982
2083.32	0.0009512
2092.96	0.0008864
2102.61	0.0009954
2112.25	0.0009315
2121.9	0.0009624
2131.54	0.0011101
2141.19	0.0010131
2150.83	0.0009033
2160.48	0.0009212
2170.12	0.000951
2179.77	0.0010267
2189.41	0.0008496
2199.06	0.0010617
2208.7	0.0007108
2218.35	0.0008369
2227.99	0.0007287
2237.64	0.0007981
2247.28	0.0007986
2256.92	0.0009021
2266.57	0.0009337
2276.21	0.0009804
2285.86	0.0010821
2295.5	0.0009108
2305.15	0.0008304
2314.79	0.0008181
2324.44	0.0007962
2334.08	0.000906
2343.73	0.0006788
2353.37	0.0007827
2363.02	0.0007056
2372.66	0.0006955
2382.31	0.0009451
2391.95	0.0009214
2401.6	0.0008076
2411.24	0.0008125
2420.89	0.0006914
2430.53	0.0007989
2440.18	0.0007466
2449.82	0.0006488
2459.47	0.0007667
2469.11	0.0005361
2478.75	0.0008767
2488.4	0.0007191
2498.04	0.0008165
2507.69	0.000867
2517.33	0.0007701
2526.98	0.000847
2536.62	0.0008785
2546.27	0.0008985
2555.91	0.00065055
2565.56	0.000992
2575.2	0.0007748
2584.85	0.0010919
2594.49	0.0009654
2604.14	0.001057
2613.78	0.0010119
2623.43	0.0010686
2633.07	0.0010323
2642.72	0.0010171
2652.36	0.0010392
2662.01	0.0011902
2671.65	0.0012439
2681.29	0.0010945
2690.94	0.0010166
2700.58	0.0010082
2710.23	0.0012217
2719.87	0.0013865
2729.52	0.001926
2739.16	0.002096
2748.81	0.0013984
2758.45	0.0014304
2768.1	0.0013082
2777.74	0.001616
2787.39	0.002086
2797.03	0.001856
2806.68	0.002116
2816.32	0.002306
2825.97	0.002956
2835.61	0.003286
2845.26	0.003866
2854.9	0.005586
2864.55	0.010786
2874.19	0.021916
2883.84	0.030946
2893.48	0.031106
2903.12	0.028756
2912.77	0.034316
2922.41	0.051136
2932.06	0.084396
2941.7	0.110886
2951.35	0.094296
2960.99	0.085736
2970.64	0.069566
2980.28	0.048846
2989.93	0.037626
2999.57	0.025216
3009.22	0.011136
3018.86	0.005076
3028.51	0.003546
3038.15	0.002946
3047.8	0.002626
3057.44	0.002716
3067.09	0.002786
3076.73	0.003586
3086.38	0.005846
3096.02	0.010276
3105.67	0.008796
3115.31	0.003916
3124.95	0.002096
3134.6	0.001946
3144.24	0.001596
3153.89	0.001796
3163.53	0.001656
3173.18	0.001626
3182.82	0.001666
3192.47	0.0014722
3202.11	0.0014812
3211.76	0.0014729
3221.4	0.0012239
3231.05	0.0007409
3240.69	0.0010275
3250.34	0.00060273
3259.98	0.0009101
3269.63	0.0007175
3279.27	0.0007495
3288.92	0.0009378
3298.56	0.0008271
3308.21	0.0007
3317.85	0.0005998
3327.49	0.00060528
3337.14	0.00064667
3346.78	0.00060249
3356.43	0.0009774
3366.07	0.00061057
3375.72	0.000361
3385.36	0.000436
3395.01	0.0006982
3404.65	0.000451
3414.3	0.0004
3423.94	0.000431
3433.59	0.000434
3443.23	0.0005137
3452.88	0.000488
3462.52	0.00059742
3472.17	0.000338
3481.81	0.000933
3491.46	0.00059928
3501.1	0.000348
3510.75	0.0005559
3520.39	0.000364
3530.04	0.0007272
3539.68	0.000325
3549.32	0.00067146
3558.97	0.000173
3568.61	0.000285
3578.26	0.0005424
3587.9	0.0005629
3597.55	0.000472
3607.19	0.0005401
3616.84	0.00062467
3626.48	0.000401
3636.13	0.0007121
3645.77	0.0007546
3655.42	0.000576721
3665.06	0.000313
3674.71	0.000398
3684.35	0.00058878
3694	0.000432
3703.64	0.000463
3713.29	0.00035
3722.93	0.0004962
3732.58	0.0005235
3742.22	0.000252
3751.86	0.000443
3761.51	0.00063783
3771.15	0.0007961
3780.8	0.000871
3790.44	0.000763
3800.09	0.0007503
3809.73	0.0005749
3819.38	0.0008774
3829.02	0.000468
3838.67	0.000466
3848.31	0.0005458
3857.96	0.000437
3867.6	0.00067561
3877.25	0.000524
3886.89	0.000575274
3896.54	0.0008096
3906.18	0.0007483
3915.83	0.0011046
3925.47	0.0012188
3935.12	0.0012022
3944.76	0.0009214
3954.41	0.0011698
3964.05	0.0006911
3973.69	0.000433
3983.34	0.000411
3992.98	0.0006794
