Infrared Spectrum: Benzanthrone
Formula: C 17 H 10 O
CAS: 82-05-3
State: gas
Instrument: HP-GC/MS/IRD
Origin: NIST Mass Spectrometry Data Center
1/CM	ABSORBANCE
550	0.0002664
562	0.0002016
574	0.001296
586	0.001092
598	0.0002496
610	8.88e-05
622	0.0002016
634	0.00018
646	0.0001944
658	0.000996
670	0.000288
682	0.0010296
694	0.0013056
706	0.0002808
718	0.0001704
730	0.000372
742	0.002628
754	0.0070152
766	0.0053616
778	0.01392
790	0.003588
802	0.0008136
814	0.0003024
826	0.0004368
838	0.0021576
850	0.000864
862	0.0004872
874	0.0019776
886	0.0008232
898	0.00024
910	0.00024
922	0.000312
934	0.0016416
946	0.0029784
958	0.0003168
970	0.0001752
982	0.000132
994	0.0001272
1006	0.0003384
1018	0.0022656
1030	0.0030768
1042	0.000864
1054	0.000204
1066	0.0008688
1078	0.0008688
1090	0.0002928
1102	0.0002616
1114	0.000216
1126	0.0003312
1138	0.0007344
1150	0.0006504
1162	0.0013296
1174	0.0008448
1186	0.0009288
1198	0.0014856
1210	0.0011904
1222	0.0011448
1234	0.0008256
1246	0.0011832
1258	0.0028776
1270	0.0069336
1282	0.0060288
1294	0.0113184
1306	0.006048
1318	0.0034104
1330	0.0028056
1342	0.0055848
1354	0.0049488
1366	0.0025536
1378	0.0040656
1390	0.003252
1402	0.0007848
1414	0.0005088
1426	0.0008328
1438	0.0010776
1450	0.002832
1462	0.002412
1474	0.0014016
1486	0.0012192
1498	0.0013008
1510	0.0014904
1522	0.000528
1534	0.000528
1546	0.00042
1558	0.0007848
1570	0.0025464
1582	0.0048192
1594	0.0049176
1606	0.0040992
1618	0.002832
1630	0.0020784
1642	0.001884
1654	0.0045168
1666	0.017592
1678	0.0204456
1690	0.0052632
1702	0.0018744
1714	0.0013344
1726	0.0009552
1738	0.0006384
1750	0.0004512
1762	0.0003048
1774	0.0002904
1786	0.000348
1798	0.0004944
1810	0.000312
1822	0.0003504
1834	0.000372
1846	0.0003312
1858	0.0006024
1870	0.0003648
1882	0.0002208
1894	0.0002544
1906	0.0004008
1918	0.0005472
1930	0.0005832
1942	0.000564
1954	0.0005592
1966	0.0004224
1978	0.000144
1990	9.12e-05
2002	6.24e-05
2014	6e-05
2026	4.56e-05
2038	6.96e-05
2050	7.92e-05
2062	9.36e-05
2074	7.44e-05
2086	7.44e-05
2098	8.88e-05
2110	7.2e-05
2122	9.6e-05
2134	0.0001104
2146	7.68e-05
2158	5.76e-05
2170	0.0001056
2182	6.72e-05
2194	9.12e-05
2206	7.2e-05
2218	8.64e-05
2230	7.92e-05
2242	0.0001056
2254	9.6e-05
2266	0.0001152
2278	0.0001152
2290	0.0001248
2302	0.0001008
2314	9.6e-05
2326	0.0001584
2338	0.0001368
2350	9.12e-05
2362	0.000144
2374	0.00012
2386	0.0001176
2398	9.6e-05
2410	0.0001008
2422	9.36e-05
2434	6.24e-05
2446	6.72e-05
2458	9.6e-05
2470	6.24e-05
2482	9.84e-05
2494	0.000108
2506	0.0001368
2518	0.0001488
2530	0.0001056
2542	0.0001296
2554	8.4e-05
2566	8.88e-05
2578	9.84e-05
2590	7.92e-05
2602	0.0001008
2614	0.000144
2626	8.64e-05
2638	0.0001272
2650	0.000132
2662	0.0001344
2674	0.0001224
2686	7.92e-05
2698	0.0001176
2710	7.44e-05
2722	0.0001008
2734	0.0001056
2746	0.0001128
2758	0.0001296
2770	0.0001392
2782	7.92e-05
2794	0.0001296
2806	0.0001032
2818	7.2e-05
2830	0.0001104
2842	9.36e-05
2854	0.0001536
2866	0.0001272
2878	0.0001488
2890	0.0001632
2902	0.0001392
2914	0.0001872
2926	0.0001896
2938	0.0002352
2950	0.0002496
2962	0.0001992
2974	0.000228
2986	0.0001968
2998	0.000384
3010	0.000588
3022	0.000888
3034	0.0015624
3046	0.0025104
3058	0.005328
3070	0.006912
3082	0.0042624
3094	0.0024696
3106	0.0013368
3118	0.0005016
3130	0.0003648
3142	0.0003216
3154	0.0002568
3166	0.000264
3178	0.0001848
3190	0.0001512
3202	0.0001152
3214	0.0001056
3226	0.0001224
3238	0.0001584
3250	9.6e-05
3262	0.000108
3274	0.0001656
3286	0.000156
3298	0.00018
3310	0.000228
3322	0.0003
3334	0.00042
3346	0.0002208
3358	0.0002136
3370	0.000156
3382	6.24e-05
3394	0.0001224
3406	5.76e-05
3418	8.16e-05
3430	8.4e-05
3442	0.0001488
3454	0.000108
3466	7.2e-05
3478	9.12e-05
3490	7.68e-05
3502	0.0001584
3514	0.0001008
3526	0.0001224
3538	0.0001416
3550	0.0001056
3562	0.0001488
3574	9.6e-05
3586	0.0001224
3598	0.0001272
3610	0.0001632
3622	0.0001032
3634	0.0001632
3646	0.0001656
3658	0.000144
3670	0.0001344
3682	0.0001968
3694	0.000204
3706	0.0001656
3718	0.0001536
3730	0.0001608
3742	0.000168
3754	9.36e-05
3766	0.000144
3778	8.88e-05
3790	7.2e-05
3802	9.84e-05
3814	6.48e-05
3826	0.0001008
3838	0.0001296
