Infrared Spectrum: 2-AMINO-1-CHLOROANTHRAQUINONE
Formula: C14 H8 Cl N O2
CAS: 82-27-9
State: SOLID (KBr PELLET)
Class: COBLENTZ
Instrument: Not specified, most likely a prism, grating, or hybrid spectrometer.
Sampling: TRANSMISSION
Resolution: 4
Origin: CORN PRODUCTS COMPANY
MICROMETERS	TRANSMITTANCE
2.027	0.605
2.06085	0.605
2.09469	0.608
2.12854	0.613
2.16239	0.617
2.19623	0.622
2.23008	0.627
2.26393	0.629
2.29777	0.63
2.33162	0.635
2.36547	0.639
2.39931	0.644
2.43316	0.647
2.46701	0.647
2.50085	0.649
2.5347	0.65
2.56855	0.655
2.60239	0.661
2.63624	0.662
2.67009	0.662
2.70393	0.662
2.73778	0.666
2.77163	0.666
2.80547	0.645
2.83932	0.615
2.87317	0.585
2.90701	0.504
2.94086	0.49
2.97471	0.497
3.00855	0.406
3.0424	0.426
3.07625	0.551
3.11009	0.576
3.14394	0.583
3.17779	0.596
3.21163	0.622
3.24548	0.639
3.27933	0.644
3.31318	0.65
3.34702	0.661
3.38087	0.667
3.41472	0.672
3.44856	0.672
3.48241	0.672
3.51626	0.674
3.5501	0.674
3.58395	0.676
3.6178	0.679
3.65164	0.682
3.68549	0.688
3.71934	0.689
3.75318	0.688
3.78703	0.682
3.82088	0.682
3.85472	0.688
3.88857	0.691
3.92242	0.693
3.95626	0.694
3.99011	0.696
4.02396	0.696
4.0578	0.698
4.09165	0.699
4.1255	0.699
4.15934	0.701
4.19319	0.704
4.22704	0.704
4.26088	0.704
4.29473	0.703
4.32858	0.701
4.36242	0.701
4.39627	0.701
4.43012	0.701
4.46396	0.704
4.49781	0.704
4.53166	0.704
4.5655	0.704
4.59935	0.704
4.6332	0.704
4.66704	0.704
4.70089	0.704
4.73474	0.706
4.76858	0.706
4.80243	0.706
4.83628	0.706
4.87012	0.706
4.90397	0.706
4.93782	0.706
4.97166	0.706
5.00551	0.706
5.03936	0.704
5.0732	0.704
5.10705	0.704
5.1409	0.704
5.17474	0.706
5.20859	0.706
5.24244	0.706
5.27628	0.708
5.31013	0.709
5.34398	0.709
5.37782	0.709
5.41167	0.709
5.44552	0.711
5.47936	0.713
5.51321	0.711
5.54706	0.711
5.5809	0.711
5.61475	0.709
5.6486	0.709
5.68245	0.708
5.71629	0.708
5.75014	0.706
5.78399	0.704
5.81783	0.701
5.85168	0.696
5.88553	0.689
5.91937	0.649
5.95322	0.492
5.98707	0.288
6.02091	0.473
6.05476	0.495
6.08861	0.5
6.12245	0.472
6.1563	0.325
6.19015	0.256
6.22399	0.274
6.25784	0.34
6.29169	0.301
6.32553	0.394
6.35938	0.21
6.39323	0.338
6.42707	0.414
6.46092	0.448
6.49477	0.494
6.52861	0.6
6.56246	0.613
6.59631	0.629
6.63015	0.642
6.664	0.655
6.69785	0.659
6.73169	0.598
6.76554	0.568
6.79939	0.612
6.83323	0.649
6.86708	0.65
6.90093	0.649
6.93477	0.671
6.96862	0.676
7.00247	0.677
7.03631	0.674
7.07016	0.657
7.10401	0.657
7.13785	0.666
7.1717	0.667
7.20555	0.664
7.23939	0.659
7.27324	0.649
7.30709	0.623
7.34093	0.59
7.37478	0.47
7.40863	0.231
7.44247	0.175
7.47632	0.158
7.51017	0.185
7.54401	0.249
7.57786	0.345
7.61171	0.369
7.64555	0.32
7.6794	0.34
7.71325	0.403
7.74709	0.475
7.78094	0.527
7.81479	0.49
7.84863	0.31
7.88248	0.256
7.91633	0.386
7.95017	0.532
7.98402	0.59
8.01787	0.608
8.05172	0.617
8.08556	0.63
8.11941	0.622
8.15326	0.588
8.1871	0.595
8.22095	0.625
8.2548	0.64
8.28864	0.647
8.32249	0.65
8.35634	0.652
8.39018	0.652
8.42403	0.634
8.45788	0.615
8.49172	0.618
8.52557	0.603
8.55942	0.544
8.59326	0.564
8.62711	0.602
8.66096	0.61
8.6948	0.625
8.72865	0.637
8.7625	0.642
8.79634	0.645
8.83019	0.634
8.86404	0.504
8.89788	0.399
8.93173	0.45
8.96558	0.566
8.99942	0.591
9.03327	0.612
9.06712	0.618
9.10096	0.627
9.13481	0.63
9.16866	0.635
9.2025	0.635
9.23635	0.635
9.2702	0.635
9.30404	0.637
9.33789	0.637
9.37174	0.64
9.40558	0.642
9.43943	0.644
9.47328	0.647
9.50712	0.649
9.54097	0.647
9.57482	0.645
9.60866	0.644
9.64251	0.642
9.67636	0.64
9.7102	0.642
9.74405	0.645
9.7779	0.647
9.81174	0.649
9.84559	0.645
9.87944	0.637
9.91328	0.613
9.94713	0.58
9.98098	0.563
10.0148	0.563
10.0487	0.583
10.0825	0.603
10.1164	0.615
10.1502	0.622
10.1841	0.625
10.2179	0.63
10.2518	0.629
10.2856	0.629
10.3194	0.629
10.3533	0.629
10.3871	0.629
10.421	0.622
10.4548	0.603
10.4887	0.59
10.5225	0.598
10.5564	0.62
10.5902	0.63
10.6241	0.639
10.6579	0.64
10.6918	0.642
10.7256	0.637
10.7595	0.635
10.7933	0.639
10.8271	0.644
10.861	0.647
10.8948	0.647
10.9287	0.647
10.9625	0.645
10.9964	0.642
11.0302	0.64
11.0641	0.645
11.0979	0.649
11.1318	0.649
11.1656	0.644
11.1995	0.639
11.2333	0.635
11.2672	0.637
11.301	0.64
11.3348	0.642
11.3687	0.645
11.4025	0.644
11.4364	0.637
11.4702	0.629
11.5041	0.635
11.5379	0.637
11.5718	0.644
11.6056	0.645
11.6395	0.645
11.6733	0.635
11.7072	0.632
11.741	0.618
11.7749	0.61
11.8087	0.578
11.8425	0.554
11.8764	0.558
11.9102	0.591
11.9441	0.615
11.9779	0.627
12.0118	0.632
12.0456	0.635
12.0795	0.637
12.1133	0.647
12.1472	0.654
12.181	0.655
12.2149	0.655
12.2487	0.647
12.2826	0.63
12.3164	0.625
12.3502	0.63
12.3841	0.64
12.4179	0.649
12.4518	0.652
12.4856	0.659
12.5195	0.659
12.5533	0.655
12.5872	0.65
12.621	0.645
12.6549	0.644
12.6887	0.644
12.7226	0.645
12.7564	0.65
12.7903	0.657
12.8241	0.659
12.8579	0.657
12.8918	0.645
12.9256	0.623
12.9595	0.593
12.9933	0.563
13.0272	0.534
13.061	0.521
13.0949	0.549
13.1287	0.593
13.1626	0.607
13.1964	0.618
13.2303	0.622
13.2641	0.625
13.298	0.627
13.3318	0.63
13.3656	0.634
13.3995	0.637
13.4333	0.644
13.4672	0.645
13.501	0.647
13.5349	0.649
13.5687	0.654
13.6026	0.65
13.6364	0.644
13.6703	0.637
13.7041	0.634
13.738	0.63
13.7718	0.632
13.8057	0.627
13.8395	0.617
13.8733	0.598
13.9072	0.576
13.941	0.549
13.9749	0.502
14.0087	0.453
14.0426	0.384
14.0764	0.344
14.1103	0.347
14.1441	0.384
14.178	0.463
14.2118	0.571
14.2457	0.598
14.2795	0.617
14.3134	0.635
14.3472	0.642
14.3811	0.65
14.4149	0.654
14.4487	0.657
14.4826	0.655
14.5164	0.655
14.5503	0.655
14.5841	0.655
14.618	0.657
14.6518	0.655
14.6857	0.661
14.7195	0.662
14.7534	0.664
14.7872	0.662
14.8211	0.655
14.8549	0.645
14.8888	0.635
14.9226	0.622
14.9564	0.612
14.9903	0.61
15.0241	0.634
15.058	0.644
15.0918	0.639
15.1257	0.639
15.1595	0.64
15.1934	0.644
15.2272	0.645
15.2611	0.645
15.2949	0.64
15.3288	0.625
15.3626	0.605
15.3965	0.585
15.4303	0.58
15.4641	0.586
15.498	0.603
