Infrared Spectrum: Anthraquinone, 1,4-diamino-5-nitro-,
Formula: C14 H9 N3 O4
CAS: 82-33-7
State: SOLID (SPLIT MULL), FLUOROLUBE FOR 3800-1335 CM^-^1, NUJOL FOR 1335-400 CM^-^1
Melting point: 278 C
Class: COBLENTZ III
Instrument: BECKMAN IR-9 (GRATING)
Instrument parameters: ORDER CHANGES: 670, 1200, 2000 CM^-^1
Sampling: TRANSMISSION
Resolution: 2
Origin: DOW CHEMICAL COMPANY
1/CM	TRANSMITTANCE
3796	0.6154
3787	0.6164
3778	0.6177
3769	0.6188
3760	0.6208
3751	0.6233
3742	0.6259
3733	0.628
3724	0.6302
3715	0.6323
3706	0.634
3697	0.6356
3688	0.6372
3679	0.6381
3670	0.6389
3661	0.6396
3652	0.6407
3643	0.6411
3634	0.6397
3625	0.638
3616	0.637
3607	0.638
3598	0.6437
3589	0.6425
3580	0.6418
3571	0.646
3562	0.6491
3553	0.6505
3544	0.6507
3535	0.65
3526	0.6484
3517	0.6455
3508	0.6403
3499	0.6296
3490	0.6128
3481	0.5693
3472	0.5194
3463	0.4376
3454	0.2954
3445	0.1551
3436	0.1657
3427	0.2757
3418	0.3643
3409	0.446
3400	0.4842
3391	0.5141
3382	0.5338
3373	0.5505
3364	0.5589
3355	0.558
3346	0.5487
3337	0.5188
3328	0.4539
3319	0.368
3310	0.3598
3301	0.4128
3292	0.4506
3283	0.4569
3274	0.4667
3265	0.4983
3256	0.5451
3247	0.5726
3238	0.5945
3229	0.611
3220	0.6222
3211	0.6299
3202	0.635
3193	0.6365
3184	0.6396
3175	0.6431
3166	0.6469
3157	0.6508
3148	0.6549
3139	0.6595
3130	0.6649
3121	0.6707
3112	0.6741
3103	0.6753
3094	0.6668
3085	0.6456
3076	0.624
3067	0.6332
3058	0.6651
3049	0.6668
3040	0.6688
3031	0.6735
3022	0.6817
3013	0.6897
3004	0.6975
2995	0.7043
2986	0.71
2977	0.7096
2968	0.7086
2959	0.7093
2950	0.7125
2941	0.7128
2932	0.711
2923	0.7093
2914	0.7094
2905	0.71
2896	0.714
2887	0.723
2878	0.728
2869	0.7315
2860	0.7351
2851	0.7412
2842	0.7472
2833	0.7525
2824	0.7576
2815	0.7625
2806	0.7661
2797	0.7695
2788	0.7714
2779	0.7721
2770	0.7722
2761	0.7719
2752	0.7725
2743	0.7775
2734	0.7806
2725	0.7786
2716	0.7736
2707	0.775
2698	0.7796
2689	0.7835
2680	0.788
2671	0.793
2662	0.7983
2653	0.8021
2644	0.8037
2635	0.8025
2626	0.8044
2617	0.8045
2608	0.8058
2599	0.8075
2590	0.8098
2581	0.8118
2572	0.814
2563	0.8161
2554	0.8183
2545	0.8204
2536	0.8225
2527	0.8238
2518	0.8245
2509	0.8252
2500	0.8258
2491	0.8263
2482	0.8268
2473	0.8275
2464	0.8292
2455	0.8306
2446	0.8321
2437	0.8333
2428	0.8347
2419	0.8358
2410	0.8366
2401	0.8375
2392	0.8385
2383	0.8397
2374	0.8413
2365	0.8413
2356	0.8412
2347	0.8403
2338	0.8395
2329	0.8397
2320	0.8402
2311	0.8413
2302	0.8435
2293	0.8461
2284	0.8487
2275	0.8515
2266	0.8545
2257	0.8578
2248	0.8621
2239	0.8664
2230	0.8708
2221	0.8751
2212	0.879
2203	0.8814
2194	0.8839
2185	0.8864
2176	0.8892
2167	0.892
2158	0.8949
2149	0.8978
2140	0.9007
2131	0.9034
2122	0.9062
2113	0.9089
2104	0.9113
2095	0.9136
2086	0.916
2077	0.9171
2068	0.9184
2059	0.9196
2050	0.9215
2041	0.9234
2032	0.9251
2023	0.9266
2014	0.9281
2005	0.9293
1996	0.9244
1987	0.9224
1978	0.9177
1969	0.9271
1960	0.9388
1951	0.9481
1942	0.9456
1933	0.9394
1924	0.9475
1915	0.965
1906	0.97
1897	0.9742
1888	0.975
1879	0.9691
1870	0.9651
1861	0.971
1852	0.9751
1843	0.9786
1834	0.9817
1825	0.9815
1816	0.9792
1807	0.977
1798	0.9749
1789	0.9703
1780	0.9617
1771	0.9636
1762	0.9663
1753	0.9647
1744	0.959
1735	0.9545
1726	0.9534
1717	0.9566
1708	0.9531
1699	0.9448
1690	0.934
1681	0.9224
1672	0.9097
1663	0.883
1654	0.781
1645	0.6862
1636	0.7175
1627	0.5486
1618	0.2562
1609	0.2876
1600	0.2349
1591	0.2018
1582	0.1984
1573	0.0867
1564	0.088
1555	0.24
1546	0.2438
1537	0.0602
1528	0.035
1519	0.1248
1510	0.4392
1501	0.6581
1492	0.7332
1483	0.7591
1474	0.7633
1465	0.6746
1456	0.6219
1447	0.5236
1438	0.3503
1429	0.4836
1420	0.6457
1411	0.5129
1402	0.6037
1393	0.6675
1384	0.4936
1375	0.7236
1366	0.753
1357	0.7851
1348	0.7874
1339	0.7514
1330	0.7178
1321	0.6654
1312	0.5885
1303	0.4489
1294	0.2584
1285	0.16
1276	0.1555
1267	0.2233
1258	0.3532
1249	0.5039
1240	0.631
1231	0.673
1222	0.6996
1213	0.7365
1204	0.7567
1195	0.7521
1186	0.4841
1177	0.4752
1168	0.6565
1159	0.6899
1150	0.6683
1141	0.6908
1132	0.728
1123	0.7518
1114	0.76
1105	0.7611
1096	0.7618
1087	0.7737
1078	0.7417
1069	0.7075
1060	0.7453
1051	0.7568
1042	0.7539
1033	0.7458
1024	0.7469
1015	0.7657
1006	0.7805
997	0.7912
988	0.7962
979	0.8051
970	0.7964
961	0.7842
952	0.8032
943	0.8155
934	0.7856
925	0.8275
916	0.845
907	0.8578
898	0.858
889	0.7708
880	0.8185
871	0.8504
862	0.8545
853	0.843
844	0.6878
835	0.5275
826	0.7788
817	0.8639
808	0.8418
799	0.5486
790	0.848
781	0.8227
772	0.8183
763	0.7665
754	0.8912
745	0.8646
736	0.5855
727	0.7751
718	0.7871
709	0.5782
700	0.8628
691	0.8568
682	0.8176
673	0.8667
664	0.8665
655	0.8712
646	0.877
637	0.8744
628	0.8661
619	0.8675
610	0.8453
601	0.7315
592	0.761
583	0.6985
574	0.6412
565	0.6678
556	0.7442
547	0.7568
538	0.7326
529	0.7183
520	0.7269
511	0.754
502	0.7654
493	0.7292
484	0.6842
475	0.7408
466	0.7264
457	0.6565
448	0.4854
439	0.4897
430	0.4937
421	0.5168
412	0.5236
403	0.5406
