Infrared Spectrum: 1-Methylaminoanthraquinone
Formula: C 15 H 11 N O 2
CAS: 82-38-2
State: gas
Origin: EPA-IR VAPOR PHASE LIBRARY
1/CM	ABSORBANCE
549.9	0.004623
559.547	0.003333
569.193	0.003223
578.84	0.003723
588.486	0.004743
598.133	0.004393
607.779	0.004203
617.426	0.004113
627.072	0.003843
636.719	0.003513
646.365	0.003713
656.012	0.007603
665.658	0.008853
675.305	0.003813
684.951	0.003083
694.598	0.004793
704.245	0.018533
713.891	0.023213
723.538	0.009573
733.184	0.012043
742.831	0.007723
752.477	0.003933
762.124	0.003633
771.77	0.005843
781.417	0.005313
791.063	0.007413
800.71	0.009753
810.356	0.003723
820.003	0.003433
829.649	0.005193
839.296	0.004163
848.943	0.006403
858.589	0.010373
868.236	0.003913
877.882	0.001863
887.529	0.001733
897.175	0.001663
906.822	0.002283
916.468	0.003563
926.115	0.001963
935.761	0.0015999
945.408	0.001983
955.054	0.003613
964.701	0.007843
974.347	0.019243
983.994	0.032263
993.64	0.012963
1003.29	0.005353
1012.93	0.003443
1022.58	0.002853
1032.23	0.002903
1041.87	0.002523
1051.52	0.003383
1061.17	0.007753
1070.81	0.013663
1080.46	0.004953
1090.11	0.003423
1099.75	0.003193
1109.4	0.003003
1119.05	0.003983
1128.69	0.006443
1138.34	0.008843
1147.99	0.013743
1157.63	0.017953
1167.28	0.015583
1176.92	0.024083
1186.57	0.012393
1196.22	0.006753
1205.86	0.006923
1215.51	0.009353
1225.16	0.016323
1234.8	0.027103
1244.45	0.032533
1254.1	0.050553
1263.74	0.106583
1273.39	0.131033
1283.04	0.047713
1292.68	0.029383
1302.33	0.049753
1311.98	0.055193
1321.62	0.043923
1331.27	0.038913
1340.92	0.032473
1350.56	0.023673
1360.21	0.011783
1369.86	0.007003
1379.5	0.005723
1389.15	0.008403
1398.79	0.014373
1408.44	0.011653
1418.09	0.006643
1427.73	0.007483
1437.38	0.007873
1447.03	0.005373
1456.67	0.005283
1466.32	0.005673
1475.97	0.007233
1485.61	0.008933
1495.26	0.012333
1504.91	0.029663
1514.55	0.043333
1524.2	0.028783
1533.85	0.014803
1543.49	0.010533
1553.14	0.009963
1562.79	0.014723
1572.43	0.031563
1582.08	0.053483
1591.73	0.068163
1601.37	0.053573
1611.02	0.022473
1620.67	0.018053
1630.31	0.030513
1639.96	0.060573
1649.6	0.052103
1659.25	0.020633
1668.9	0.016243
1678.54	0.037543
1688.19	0.045153
1697.84	0.011963
1707.48	0.003883
1717.13	0.002913
1726.78	0.002693
1736.42	0.002093
1746.07	0.001903
1755.72	0.001743
1765.36	0.002253
1775.01	0.002273
1784.66	0.001753
1794.3	0.0012347
1803.95	0.0010842
1813.6	0.0010037
1823.24	0.00087
1832.89	0.00075901
1842.54	0.00079683
1852.18	0.0011696
1861.83	0.0012469
1871.47	0.0010483
1881.12	0.0008877
1890.77	0.00076657
1900.41	0.000595
1910.06	0.000573
1919.71	0.000704713
1929.35	0.0010783
1939	0.001605
1948.65	0.0014776
1958.29	0.0010999
1967.94	0.0008279
1977.59	0.0009597
1987.23	0.000605
1996.88	0.000434
2006.53	0.000369
2016.17	0.000375
2025.82	0.000305
2035.47	0.00029
2045.11	0.000369
2054.76	0.00045
2064.41	0.00053
2074.05	0.000556
2083.7	0.000419
2093.35	0.000331
2102.99	0.000254
2112.64	0.000328
2122.28	0.000364
2131.93	0.000398
2141.58	0.000379
2151.22	0.000335
2160.87	0.000368
2170.52	0.000396
2180.16	0.00039
2189.81	0.000276
2199.46	0.000214
2209.1	0.000203
2218.75	0.000287
2228.4	0.000383
2238.04	0.000461
2247.69	0.000501
2257.34	0.000436
2266.98	0.000388
2276.63	0.000315
2286.28	0.000308
2295.92	0.000291
2305.57	0.000335
2315.22	0.000383
2324.86	0.000401
2334.51	0.000295
2344.16	0.000286
2353.8	0.000226
2363.45	0.000233
2373.09	0.000368
2382.74	0.000432
2392.39	0.000355
2402.03	0.000337
2411.68	0.000427
2421.33	0.00047
2430.97	0.000482
2440.62	0.000413
2450.27	0.000341
2459.91	0.000301
2469.56	0.000303
2479.21	0.000349
2488.85	0.000369
2498.5	0.000506
2508.15	0.000448
2517.79	0.000394
2527.44	0.000336
2537.09	0.000332
2546.73	0.000413
2556.38	0.000434
2566.03	0.000453
2575.67	0.000396
2585.32	0.000446
2594.96	0.000456
2604.61	0.000529
2614.26	0.000711381
2623.9	0.00072392
2633.55	0.000515
2643.2	0.000446
2652.84	0.000415
2662.49	0.000409
2672.14	0.000447
2681.78	0.000559
2691.43	0.000710497
2701.08	0.0006905
2710.72	0.000654
2720.37	0.000553
2730.02	0.0006171
2739.66	0.000598
2749.31	0.0006552
2758.96	0.000592
2768.6	0.00079928
2778.25	0.0009092
2787.9	0.001084
2797.54	0.0016791
2807.19	0.002173
2816.84	0.003613
2826.48	0.005063
2836.13	0.005843
2845.77	0.006133
2855.42	0.003253
2865.07	0.002593
2874.71	0.003803
2884.36	0.005713
2894.01	0.006483
2903.65	0.007973
2913.3	0.010833
2922.95	0.010123
2932.59	0.007763
2942.24	0.007923
2951.89	0.007883
2961.53	0.005123
2971.18	0.002643
2980.83	0.002673
2990.47	0.004133
3000.12	0.004033
3009.77	0.002673
3019.41	0.002513
3029.06	0.002323
3038.71	0.002773
3048.35	0.003183
3058	0.003463
3067.64	0.006103
3077.29	0.014323
3086.94	0.011243
3096.58	0.005443
3106.23	0.001993
3115.88	0.00078213
3125.52	0.000462
3135.17	0.000381
3144.82	0.000437
3154.46	0.000489
3164.11	0.000586
3173.76	0.000217
3183.4	9.1e-05
3193.05	0.00012
3202.7	0.000119
3212.34	0.000419
3221.99	0.000556
3231.64	0.00056
3241.28	0.00069398
3250.93	0.0010236
3260.58	0.0015475
3270.22	0.002393
3279.87	0.003323
3289.52	0.004433
3299.16	0.006003
3308.81	0.006833
3318.45	0.006403
3328.1	0.005363
3337.75	0.004493
3347.39	0.003663
3357.04	0.002773
3366.69	0.001743
3376.33	0.0012044
3385.98	0.00075865
3395.63	0.000589
3405.27	0.000509
3414.92	0.000359
3424.57	0.000374
3434.21	0.000301
3443.86	0.000354
3453.51	0.000378
3463.15	0.000272
3472.8	0.000187
3482.45	0.000218
3492.09	0.000237
3501.74	0.000219
3511.39	0.000213
3521.03	0.000179
3530.68	0.000124
3540.33	9.4e-05
3549.97	0.000132
3559.62	9.5e-05
3569.26	0.000146
3578.91	0.000128
3588.56	0.0002
3598.2	0.000194
3607.85	8.3e-05
3617.5	8.2e-05
3627.14	0.000176
3636.79	0.000128
3646.44	4.6e-05
3656.08	9.2e-05
3665.73	0.000164
3675.38	4.4e-05
3685.02	0.000178
3694.67	0.000223
3704.32	0.000194
3713.96	0.000166
3723.61	0.000168
3733.26	0.000229
3742.9	8.2e-05
3752.55	0.00014
3762.2	0.000254
3771.84	0.000133
3781.49	0.000143
3791.13	0.000249
3800.78	0.000201
3810.43	0.000208
3820.07	0.00019
3829.72	0.000197
3839.37	0.000217
3849.01	0.000214
3858.66	0.000243
3868.31	0.000193
3877.95	0.000169
3887.6	0.000144
3897.25	0.000228
3906.89	0.000213
3916.54	0.000265
3926.19	0.000276
3935.83	0.000298
3945.48	0.000254
3955.13	0.000273
3964.77	0.000296
3974.42	0.00027
3984.07	0.000373
3993.71	0.000363
