Infrared Spectrum: ANTHRAQUINONE, 1,8-DICHLORO
Formula: C14 H6 Cl2 O2
CAS: 82-43-9
State: SOLID (PELLET)
Class: COBLENTZ
Instrument: Not specified, most likely a prism, grating, or hybrid spectrometer.
Sampling: TRANSMISSION
Resolution: 4
Origin: TENNESSEE EASTMAN COMPANY, RESEARCH LABORATORIES
MICROMETERS	TRANSMITTANCE
2.065	0.702
2.10507	0.701
2.14513	0.704
2.1852	0.707
2.22526	0.719
2.26533	0.734
2.3054	0.739
2.34546	0.744
2.38553	0.747
2.42559	0.749
2.46566	0.762
2.50573	0.776
2.54579	0.792
2.58586	0.801
2.62592	0.814
2.66599	0.828
2.70606	0.834
2.74612	0.826
2.78619	0.789
2.82625	0.724
2.86632	0.677
2.90639	0.642
2.94645	0.631
2.98652	0.647
3.02658	0.671
3.06665	0.702
3.10671	0.731
3.14678	0.749
3.18685	0.761
3.22691	0.759
3.26698	0.664
3.30704	0.757
3.34711	0.777
3.38718	0.797
3.42724	0.796
3.46731	0.811
3.50737	0.814
3.54744	0.844
3.58751	0.853
3.62757	0.861
3.66764	0.863
3.7077	0.866
3.74777	0.873
3.78784	0.883
3.8279	0.884
3.86797	0.879
3.90803	0.886
3.9481	0.906
3.98817	0.911
4.02823	0.916
4.0683	0.919
4.10836	0.924
4.14843	0.928
4.1885	0.929
4.22856	0.929
4.26863	0.931
4.30869	0.934
4.34876	0.936
4.38883	0.936
4.42889	0.936
4.46896	0.936
4.50902	0.936
4.54909	0.936
4.58916	0.934
4.62922	0.933
4.66929	0.929
4.70935	0.928
4.74942	0.928
4.78949	0.926
4.82955	0.924
4.86962	0.923
4.90968	0.919
4.94975	0.916
4.98981	0.913
5.02988	0.909
5.06995	0.906
5.11001	0.904
5.15008	0.911
5.19014	0.916
5.23021	0.888
5.27028	0.913
5.31034	0.921
5.35041	0.924
5.39047	0.919
5.43054	0.903
5.47061	0.929
5.51067	0.931
5.55074	0.931
5.5908	0.928
5.63087	0.931
5.67094	0.924
5.711	0.924
5.75107	0.916
5.79113	0.886
5.8312	0.848
5.87127	0.803
5.91133	0.587
5.9514	0.113
5.99146	0.08
6.03153	0.405
6.0716	0.554
6.11166	0.632
6.15173	0.716
6.19179	0.749
6.23186	0.756
6.27193	0.746
6.31199	0.634
6.35206	0.171
6.39212	0.397
6.43219	0.662
6.47226	0.737
6.51232	0.809
6.55239	0.806
6.59245	0.826
6.63252	0.831
6.67259	0.853
6.71265	0.856
6.75272	0.863
6.79278	0.849
6.83285	0.821
6.87291	0.757
6.91298	0.609
6.95305	0.674
6.99311	0.545
7.03318	0.751
7.07324	0.836
7.11331	0.849
7.15338	0.854
7.19344	0.854
7.23351	0.848
7.27357	0.848
7.31364	0.864
7.35371	0.869
7.39377	0.858
7.43384	0.786
7.4739	0.661
7.51397	0.273
7.55404	0.091
7.5941	0.086
7.63417	0.153
7.67423	0.363
7.7143	0.53
7.75437	0.627
7.79443	0.649
7.8345	0.651
7.87456	0.656
7.91463	0.677
7.9547	0.634
7.99476	0.322
8.03483	0.031
8.07489	0.158
8.11496	0.363
8.15503	0.484
8.19509	0.524
8.23516	0.592
8.27522	0.622
8.31529	0.652
8.35536	0.674
8.39542	0.687
8.43549	0.666
8.47555	0.524
8.51562	0.656
8.55569	0.702
8.59575	0.666
8.63582	0.689
8.67588	0.707
8.71595	0.669
8.75601	0.425
8.79608	0.235
8.83615	0.193
8.87621	0.412
8.91628	0.532
8.95634	0.595
8.99641	0.619
9.03648	0.634
9.07654	0.649
9.11661	0.662
9.15667	0.672
9.19674	0.681
9.23681	0.659
9.27687	0.676
9.31694	0.689
9.357	0.701
9.39707	0.711
9.43714	0.714
9.4772	0.719
9.51727	0.722
9.55733	0.721
9.5974	0.721
9.63747	0.726
9.67753	0.736
9.7176	0.739
9.75766	0.739
9.79773	0.739
9.8378	0.744
9.87786	0.742
9.91793	0.721
9.95799	0.679
9.99806	0.679
10.0381	0.681
10.0782	0.671
10.1183	0.535
10.1583	0.464
10.1984	0.601
10.2385	0.681
10.2785	0.712
10.3186	0.731
10.3587	0.734
10.3987	0.734
10.4388	0.734
10.4789	0.737
10.5189	0.741
10.559	0.742
10.599	0.747
10.6391	0.752
10.6792	0.752
10.7192	0.759
10.7593	0.742
10.7994	0.742
10.8394	0.742
10.8795	0.742
10.9196	0.749
10.9596	0.747
10.9997	0.669
11.0398	0.732
11.0798	0.752
11.1199	0.766
11.16	0.772
11.2	0.776
11.2401	0.776
11.2802	0.777
11.3202	0.777
11.3603	0.777
11.4004	0.777
11.4404	0.776
11.4805	0.769
11.5206	0.762
11.5606	0.742
11.6007	0.707
11.6408	0.631
11.6808	0.414
11.7209	0.242
11.761	0.365
11.801	0.514
11.8411	0.619
11.8812	0.542
11.9212	0.36
11.9613	0.587
12.0014	0.686
12.0414	0.714
12.0815	0.731
12.1216	0.742
12.1616	0.749
12.2017	0.751
12.2418	0.749
12.2818	0.749
12.3219	0.744
12.362	0.744
12.402	0.739
12.4421	0.697
12.4821	0.547
12.5222	0.41
12.5623	0.4
12.6023	0.25
12.6424	0.485
12.6825	0.632
12.7225	0.701
12.7626	0.731
12.8027	0.741
12.8427	0.742
12.8828	0.747
12.9229	0.751
12.9629	0.751
13.003	0.752
13.0431	0.752
13.0831	0.749
13.1232	0.702
13.1633	0.587
13.2033	0.522
13.2434	0.597
13.2835	0.657
13.3235	0.694
13.3636	0.706
13.4037	0.702
13.4437	0.666
13.4838	0.575
13.5239	0.392
13.5639	0.193
13.604	0.071
13.6441	0.08
13.6841	0.252
13.7242	0.395
13.7643	0.492
13.8043	0.542
13.8444	0.614
13.8845	0.647
13.9245	0.647
13.9646	0.647
14.0047	0.661
14.0447	0.679
14.0848	0.682
14.1249	0.682
14.1649	0.697
14.205	0.717
14.2451	0.737
14.2851	0.741
14.3252	0.744
14.3652	0.747
14.4053	0.751
14.4454	0.752
14.4854	0.754
14.5255	0.757
14.5656	0.759
14.6056	0.759
14.6457	0.761
14.6858	0.761
14.7258	0.761
14.7659	0.757
14.806	0.739
14.846	0.707
14.8861	0.684
14.9262	0.682
14.9662	0.686
15.0063	0.696
15.0464	0.709
15.0864	0.707
15.1265	0.687
15.1666	0.656
15.2066	0.627
15.2467	0.629
15.2868	0.641
15.3268	0.679
15.3669	0.701
15.407	0.716
15.447	0.722
15.4871	0.731
15.5272	0.736
15.5672	0.737
15.6073	0.739
15.6474	0.739
15.6874	0.737
15.7275	0.737
15.7676	0.737
15.8076	0.736
15.8477	0.736
