Infrared Spectrum: ANTHRAQUINONE, 1-AMINO-
Formula: C14 H9 N O2
CAS: 82-45-1
State: SOLID (KBr PELLET)
Class: COBLENTZ
Instrument: Not specified, most likely a prism, grating, or hybrid spectrometer.
Sampling: TRANSMISSION
Resolution: 4
Origin: TENNESSEE EASTMAN COMPANY, RESEARCH LABORATORIES
MICROMETERS	TRANSMITTANCE
2.085	0.91
2.12506	0.907
2.16511	0.889
2.20517	0.875
2.24522	0.849
2.28528	0.846
2.32534	0.844
2.36539	0.844
2.40545	0.841
2.4455	0.837
2.48556	0.831
2.52561	0.809
2.56567	0.796
2.60573	0.791
2.64578	0.784
2.68584	0.783
2.72589	0.776
2.76595	0.756
2.80601	0.725
2.84606	0.667
2.88612	0.562
2.92617	0.496
2.96623	0.367
3.00629	0.417
3.04634	0.473
3.0864	0.451
3.12645	0.546
3.16651	0.582
3.20657	0.61
3.24662	0.629
3.28668	0.639
3.32673	0.64
3.36679	0.647
3.40684	0.65
3.4469	0.632
3.48696	0.64
3.52701	0.65
3.56707	0.657
3.60712	0.668
3.64718	0.673
3.68724	0.678
3.72729	0.678
3.76735	0.678
3.8074	0.683
3.84746	0.685
3.88752	0.688
3.92757	0.697
3.96763	0.703
4.00768	0.706
4.04774	0.711
4.08779	0.711
4.12785	0.716
4.16791	0.718
4.20796	0.723
4.24802	0.73
4.28807	0.728
4.32813	0.725
4.36819	0.728
4.40824	0.75
4.4483	0.756
4.48835	0.758
4.52841	0.761
4.56847	0.763
4.60852	0.766
4.64858	0.768
4.68863	0.771
4.72869	0.771
4.76875	0.776
4.8088	0.776
4.84886	0.781
4.88891	0.783
4.92897	0.783
4.96902	0.786
5.00908	0.791
5.04914	0.793
5.08919	0.793
5.12925	0.793
5.1693	0.794
5.20936	0.798
5.24942	0.804
5.28947	0.806
5.32953	0.807
5.36958	0.806
5.40964	0.809
5.4497	0.812
5.48975	0.814
5.52981	0.814
5.56986	0.812
5.60992	0.811
5.64997	0.812
5.69003	0.814
5.73009	0.814
5.77014	0.811
5.8102	0.798
5.85025	0.789
5.89031	0.788
5.93037	0.781
5.97042	0.759
6.01048	0.645
6.05053	0.451
6.09059	0.533
6.13065	0.43
6.1707	0.437
6.21076	0.375
6.25081	0.251
6.29087	0.339
6.33093	0.417
6.37098	0.549
6.41104	0.627
6.45109	0.559
6.49115	0.41
6.5312	0.533
6.57126	0.6
6.61132	0.668
6.65137	0.682
6.69143	0.705
6.73148	0.71
6.77154	0.711
6.8116	0.682
6.85165	0.615
6.89171	0.528
6.93176	0.658
6.97182	0.698
7.01188	0.715
7.05193	0.721
7.09199	0.721
7.13204	0.72
7.1721	0.71
7.21215	0.658
7.25221	0.596
7.29227	0.587
7.33232	0.615
7.37238	0.67
7.41243	0.693
7.45249	0.69
7.49255	0.65
7.5326	0.599
7.57266	0.539
7.61271	0.519
7.65277	0.521
7.69283	0.521
7.73288	0.453
7.77294	0.261
7.81299	0.122
7.85305	0.122
7.8931	0.283
7.93316	0.35
7.97322	0.42
8.01327	0.485
8.05333	0.541
8.09338	0.581
8.13344	0.597
8.1735	0.6
8.21355	0.619
8.25361	0.629
8.29366	0.637
8.33372	0.639
8.37378	0.639
8.41383	0.627
8.45389	0.629
8.49394	0.596
8.534	0.516
8.57406	0.503
8.61411	0.511
8.65417	0.529
8.69422	0.539
8.73428	0.552
8.77433	0.571
8.81439	0.581
8.85445	0.582
8.8945	0.586
8.93456	0.589
8.97461	0.589
9.01467	0.592
9.05473	0.592
9.09478	0.591
9.13484	0.589
9.17489	0.591
9.21495	0.594
9.25501	0.596
9.29506	0.596
9.33512	0.596
9.37517	0.594
9.41523	0.591
9.45528	0.591
9.49534	0.587
9.5354	0.586
9.57545	0.586
9.61551	0.586
9.65556	0.586
9.69562	0.586
9.73568	0.586
9.77573	0.581
9.81579	0.561
9.85584	0.526
9.8959	0.523
9.93596	0.524
9.97601	0.526
10.0161	0.538
10.0561	0.552
10.0962	0.569
10.1362	0.581
10.1763	0.581
10.2163	0.584
10.2564	0.584
10.2965	0.584
10.3365	0.586
10.3766	0.589
10.4166	0.591
10.4567	0.591
10.4967	0.591
10.5368	0.597
10.5769	0.597
10.6169	0.6
10.657	0.604
10.697	0.61
10.7371	0.614
10.7771	0.615
10.8172	0.617
10.8572	0.619
10.8973	0.619
10.9374	0.619
10.9774	0.617
11.0175	0.617
11.0575	0.617
11.0976	0.619
11.1376	0.619
11.1777	0.619
11.2177	0.617
11.2578	0.619
11.2979	0.617
11.3379	0.594
11.378	0.546
11.418	0.531
11.4581	0.564
11.4981	0.591
11.5382	0.597
11.5782	0.597
11.6183	0.605
11.6584	0.607
11.6984	0.61
11.7385	0.61
11.7785	0.612
11.8186	0.612
11.8586	0.612
11.8987	0.612
11.9388	0.607
11.9788	0.587
12.0189	0.524
12.0589	0.523
12.099	0.551
12.139	0.599
12.1791	0.6
12.2191	0.604
12.2592	0.607
12.2993	0.6
12.3393	0.576
12.3794	0.556
12.4194	0.552
12.4595	0.521
12.4995	0.518
12.5396	0.552
12.5796	0.589
12.6197	0.591
12.6598	0.591
12.6998	0.589
12.7399	0.584
12.7799	0.582
12.82	0.584
12.86	0.586
12.9001	0.596
12.9401	0.597
12.9802	0.599
13.0203	0.602
13.0603	0.6
13.1004	0.599
13.1404	0.6
13.1805	0.602
13.2205	0.602
13.2606	0.6
13.3007	0.6
13.3407	0.597
13.3808	0.576
13.4208	0.533
13.4609	0.506
13.5009	0.461
13.541	0.448
13.581	0.456
13.6211	0.521
13.6612	0.538
13.7012	0.559
13.7413	0.572
13.7813	0.572
13.8214	0.572
13.8614	0.567
13.9015	0.534
13.9415	0.511
13.9816	0.466
14.0217	0.403
14.0617	0.339
14.1018	0.276
14.1418	0.264
14.1819	0.322
14.2219	0.408
14.262	0.46
14.302	0.493
14.3421	0.521
14.3822	0.526
14.4222	0.529
14.4623	0.529
14.5023	0.531
14.5424	0.531
14.5824	0.531
14.6225	0.531
14.6626	0.529
14.7026	0.531
14.7427	0.529
14.7827	0.529
14.8228	0.531
14.8628	0.533
14.9029	0.531
14.9429	0.529
14.983	0.528
15.0231	0.518
15.0631	0.5
15.1032	0.485
15.1432	0.478
15.1833	0.473
15.2233	0.466
15.2634	0.46
15.3034	0.46
15.3435	0.46
15.3836	0.46
15.4236	0.46
15.4637	0.458
15.5037	0.46
15.5438	0.461
15.5838	0.46
15.6239	0.46
15.6639	0.46
15.704	0.46
15.7441	0.456
15.7841	0.455
15.8242	0.451
15.8642	0.447
15.9043	0.445
15.9443	0.443
15.9844	0.44
