Infrared Spectrum: 1, 5-DICHLOROANTHRAQUINONE
Formula: C14 H6 Cl2 O2
CAS: 82-46-2
State: SOLID (KBr PELLET)
Class: COBLENTZ
Instrument: Not specified, most likely a prism, grating, or hybrid spectrometer.
Sampling: TRANSMISSION
Resolution: 4
Origin: CORN PRODUCTS COMPANY
MICROMETERS	TRANSMITTANCE
2.027	0.486
2.06086	0.493
2.09471	0.503
2.12857	0.508
2.16242	0.517
2.19628	0.525
2.23013	0.532
2.26399	0.539
2.29784	0.544
2.3317	0.549
2.36555	0.557
2.39941	0.564
2.43326	0.569
2.46712	0.574
2.50097	0.578
2.53483	0.583
2.56868	0.588
2.60254	0.593
2.6364	0.595
2.67025	0.598
2.70411	0.608
2.73796	0.607
2.77182	0.602
2.80567	0.579
2.83953	0.564
2.87338	0.551
2.90724	0.54
2.94109	0.542
2.97495	0.566
3.0088	0.581
3.04266	0.605
3.07651	0.622
3.11037	0.627
3.14422	0.632
3.17808	0.637
3.21194	0.642
3.24579	0.6
3.27965	0.627
3.3135	0.651
3.34736	0.656
3.38121	0.659
3.41507	0.664
3.44892	0.668
3.48278	0.673
3.51663	0.678
3.55049	0.687
3.58434	0.688
3.6182	0.69
3.65205	0.693
3.68591	0.7
3.71976	0.704
3.75362	0.707
3.78748	0.707
3.82133	0.705
3.85519	0.71
3.88904	0.715
3.9229	0.721
3.95675	0.726
3.99061	0.729
4.02446	0.731
4.05832	0.732
4.09217	0.738
4.12603	0.741
4.15988	0.741
4.19374	0.741
4.22759	0.741
4.26145	0.743
4.2953	0.743
4.32916	0.743
4.36302	0.743
4.39687	0.744
4.43073	0.746
4.46458	0.751
4.49844	0.756
4.53229	0.761
4.56615	0.763
4.6	0.763
4.63386	0.765
4.66771	0.767
4.70157	0.767
4.73542	0.768
4.76928	0.772
4.80313	0.772
4.83699	0.772
4.87084	0.775
4.9047	0.78
4.93856	0.778
4.97241	0.782
5.00627	0.778
5.04012	0.768
5.07398	0.78
5.10783	0.789
5.14169	0.787
5.17554	0.778
5.2094	0.78
5.24325	0.79
5.27711	0.792
5.31096	0.79
5.34482	0.789
5.37867	0.792
5.41253	0.795
5.44638	0.799
5.48024	0.795
5.5141	0.799
5.54795	0.802
5.58181	0.799
5.61566	0.797
5.64952	0.799
5.68337	0.801
5.71723	0.799
5.75108	0.792
5.78494	0.784
5.81879	0.787
5.85265	0.784
5.8865	0.591
5.92036	0.231
5.95421	0.324
5.98807	0.491
6.02192	0.6
6.05578	0.675
6.08964	0.697
6.12349	0.707
6.15735	0.724
6.1912	0.734
6.22506	0.741
6.25891	0.738
6.29277	0.663
6.32662	0.222
6.36048	0.576
6.39433	0.637
6.42819	0.693
6.46204	0.732
6.4959	0.756
6.52975	0.77
6.56361	0.772
6.59747	0.778
6.63132	0.782
6.66518	0.785
6.69903	0.785
6.73289	0.785
6.76674	0.78
6.8006	0.775
6.83445	0.765
6.86831	0.763
6.90216	0.741
6.93602	0.69
6.96987	0.571
7.00373	0.664
7.03758	0.741
7.07144	0.773
7.10529	0.784
7.13915	0.789
7.17301	0.794
7.20686	0.787
7.24072	0.792
7.27457	0.799
7.30843	0.802
7.34228	0.799
7.37614	0.792
7.40999	0.782
7.44385	0.702
7.4777	0.612
7.51156	0.566
7.54541	0.418
7.57927	0.154
7.61312	0.35
7.64698	0.542
7.68083	0.647
7.71469	0.717
7.74855	0.721
7.7824	0.612
7.81626	0.496
7.85011	0.421
7.88397	0.304
7.91782	0.122
7.95168	0.187
7.98553	0.457
8.01939	0.579
8.05324	0.625
8.0871	0.653
8.12095	0.687
8.15481	0.71
8.18866	0.729
8.22252	0.724
8.25637	0.52
8.29023	0.44
8.32409	0.639
8.35794	0.71
8.3918	0.732
8.42565	0.743
8.45951	0.75
8.49336	0.744
8.52722	0.724
8.56107	0.634
8.59493	0.641
8.62878	0.704
8.66264	0.722
8.69649	0.734
8.73035	0.734
8.7642	0.663
8.79806	0.482
8.83191	0.353
8.86577	0.605
8.89963	0.675
8.93348	0.702
8.96734	0.721
9.00119	0.734
9.03505	0.743
9.0689	0.751
9.10276	0.756
9.13661	0.76
9.17047	0.746
9.20432	0.704
9.23818	0.695
9.27203	0.748
9.30589	0.767
9.33974	0.772
9.3736	0.775
9.40745	0.777
9.44131	0.78
9.47517	0.78
9.50902	0.78
9.54288	0.78
9.57673	0.78
9.61059	0.784
9.64444	0.784
9.6783	0.78
9.71215	0.784
9.74601	0.778
9.77986	0.777
9.81372	0.773
9.84757	0.778
9.88143	0.778
9.91528	0.78
9.94914	0.777
9.98299	0.765
10.0168	0.717
10.0507	0.666
10.0846	0.656
10.1184	0.642
10.1523	0.622
10.1861	0.642
10.22	0.715
10.2538	0.755
10.2877	0.772
10.3215	0.784
10.3554	0.782
10.3893	0.785
10.4231	0.785
10.457	0.79
10.4908	0.79
10.5247	0.799
10.5585	0.792
10.5924	0.794
10.6262	0.785
10.6601	0.797
10.694	0.792
10.7278	0.799
10.7617	0.782
10.7955	0.778
10.8294	0.789
10.8632	0.795
10.8971	0.802
10.9309	0.797
10.9648	0.802
10.9987	0.795
11.0325	0.802
11.0664	0.799
11.1002	0.801
11.1341	0.802
11.1679	0.802
11.2018	0.809
11.2356	0.801
11.2695	0.804
11.3034	0.801
11.3372	0.801
11.3711	0.802
11.4049	0.801
11.4388	0.804
11.4726	0.804
11.5065	0.806
11.5403	0.809
11.5742	0.806
11.608	0.807
11.6419	0.802
11.6758	0.802
11.7096	0.802
11.7435	0.802
11.7773	0.807
11.8112	0.804
11.845	0.801
11.8789	0.802
11.9127	0.797
11.9466	0.802
11.9805	0.804
12.0143	0.799
12.0482	0.806
12.082	0.799
12.1159	0.789
12.1497	0.784
12.1836	0.77
12.2174	0.731
12.2513	0.664
12.2852	0.579
12.319	0.488
12.3529	0.333
12.3867	0.29
12.4206	0.488
12.4544	0.664
12.4883	0.717
12.5221	0.746
12.556	0.77
12.5899	0.778
12.6237	0.784
12.6576	0.792
12.6914	0.789
12.7253	0.79
12.7591	0.797
12.793	0.794
12.8268	0.792
12.8607	0.797
12.8946	0.799
12.9284	0.799
12.9623	0.804
12.9961	0.801
13.03	0.797
13.0638	0.802
13.0977	0.802
13.1315	0.79
13.1654	0.792
13.1992	0.79
13.2331	0.765
13.267	0.671
13.3008	0.493
13.3347	0.42
13.3685	0.622
13.4024	0.7
13.4362	0.75
13.4701	0.761
13.5039	0.773
13.5378	0.777
13.5717	0.77
13.6055	0.767
13.6394	0.773
13.6732	0.773
13.7071	0.765
13.7409	0.761
13.7748	0.756
13.8086	0.736
13.8425	0.715
13.8764	0.695
13.9102	0.649
13.9441	0.6
13.9779	0.552
14.0118	0.544
14.0456	0.557
14.0795	0.573
14.1133	0.583
14.1472	0.564
14.1811	0.494
14.2149	0.379
14.2488	0.302
14.2826	0.326
14.3165	0.482
14.3503	0.627
14.3842	0.688
14.418	0.721
14.4519	0.739
14.4857	0.746
14.5196	0.755
14.5535	0.767
14.5873	0.77
14.6212	0.765
14.655	0.773
14.6889	0.782
14.7227	0.778
14.7566	0.772
14.7904	0.778
14.8243	0.789
14.8582	0.785
14.892	0.778
14.9259	0.778
14.9597	0.785
14.9936	0.787
15.0274	0.785
15.0613	0.78
15.0951	0.784
15.129	0.787
15.1629	0.785
15.1967	0.785
15.2306	0.787
15.2644	0.789
15.2983	0.787
15.3321	0.787
15.366	0.785
