Infrared Spectrum: 5-NITRO-1-ANTHRAQUINONESULFONIC ACID
Formula: C14 H7 N O7 S
CAS: 82-50-8
State: SOLID (MINERAL OIL MULL)
Class: COBLENTZ
Instrument: Not specified, most likely a prism, grating, or hybrid spectrometer.
Sampling: TRANSMISSION
Resolution: 4
Origin: WYANDOTTE CHEMICALS CORP., WYANDOTTE, MICHIGAN, USA
MICROMETERS	TRANSMITTANCE
2.019	0.474
2.05612	0.485
2.09323	0.482
2.13035	0.486
2.16747	0.491
2.20459	0.493
2.2417	0.496
2.27882	0.496
2.31594	0.5
2.35306	0.511
2.39017	0.524
2.42729	0.536
2.46441	0.55
2.50153	0.555
2.53864	0.564
2.57576	0.583
2.61288	0.586
2.65	0.586
2.68711	0.595
2.72423	0.592
2.76135	0.592
2.79847	0.586
2.83558	0.548
2.8727	0.5
2.90982	0.496
2.94693	0.482
2.98405	0.486
3.02117	0.457
3.05829	0.454
3.0954	0.449
3.13252	0.438
3.16964	0.421
3.20676	0.405
3.24387	0.318
3.28099	0.314
3.31811	0.255
3.35523	0.104
3.39234	0.018
3.42946	0.02
3.46658	0.029
3.5037	0.027
3.54081	0.065
3.57793	0.245
3.61505	0.281
3.65217	0.29
3.68928	0.278
3.7264	0.272
3.76352	0.27
3.80064	0.272
3.83775	0.264
3.87487	0.269
3.91199	0.276
3.9491	0.287
3.98622	0.293
4.02334	0.298
4.06046	0.311
4.09757	0.326
4.13469	0.331
4.17181	0.343
4.20893	0.351
4.24604	0.359
4.28316	0.342
4.32028	0.357
4.3574	0.377
4.39451	0.407
4.43163	0.429
4.46875	0.433
4.50587	0.429
4.54298	0.409
4.5801	0.377
4.61722	0.349
4.65434	0.351
4.69145	0.349
4.72857	0.368
4.76569	0.391
4.8028	0.429
4.83992	0.444
4.87704	0.449
4.91416	0.469
4.95127	0.486
4.98839	0.502
5.02551	0.505
5.06263	0.51
5.09974	0.517
5.13686	0.538
5.17398	0.538
5.2111	0.539
5.24821	0.552
5.28533	0.555
5.32245	0.53
5.35957	0.528
5.39668	0.519
5.4338	0.5
5.47092	0.491
5.50804	0.489
5.54515	0.488
5.58227	0.496
5.61939	0.52
5.6565	0.53
5.69362	0.558
5.73074	0.573
5.76786	0.603
5.80497	0.626
5.84209	0.659
5.87921	0.524
5.91633	0.158
5.95344	0.161
5.99056	0.244
6.02768	0.307
6.0648	0.365
6.10191	0.441
6.13903	0.493
6.17615	0.513
6.21327	0.404
6.25038	0.415
6.2875	0.275
6.32462	0.286
6.36174	0.321
6.39885	0.265
6.43597	0.199
6.47309	0.161
6.51021	0.225
6.54732	0.368
6.58444	0.496
6.62156	0.559
6.65867	0.584
6.69579	0.581
6.73291	0.475
6.77003	0.259
6.80714	0.125
6.84426	0.195
6.88138	0.295
6.9185	0.412
6.95561	0.534
6.99273	0.706
7.02985	0.771
7.06697	0.81
7.10408	0.814
7.1412	0.783
7.17832	0.573
7.21544	0.223
7.25255	0.209
7.28967	0.424
7.32679	0.55
7.36391	0.653
7.40102	0.642
7.43814	0.595
7.47526	0.424
7.51237	0.185
7.54949	0.269
7.58661	0.222
7.62373	0.259
7.66084	0.227
7.69796	0.284
7.73508	0.258
7.7722	0.13
7.80931	0.124
7.84643	0.146
7.88355	0.225
7.92067	0.304
7.95778	0.348
7.9949	0.346
8.03202	0.325
8.06914	0.279
8.10625	0.236
8.14337	0.2
8.18049	0.206
8.21761	0.192
8.25472	0.191
8.29184	0.214
8.32896	0.267
8.36607	0.286
8.40319	0.241
8.44031	0.25
8.47743	0.262
8.51454	0.225
8.55166	0.149
8.58878	0.115
8.6259	0.096
8.66301	0.096
8.70013	0.09
8.73725	0.087
8.77437	0.09
8.81148	0.094
8.8486	0.105
8.88572	0.107
8.92284	0.129
8.95995	0.144
8.99707	0.183
9.03419	0.203
9.07131	0.223
9.10842	0.222
9.14554	0.241
9.18266	0.281
9.21978	0.312
9.25689	0.335
9.29401	0.346
9.33113	0.357
9.36824	0.399
9.40536	0.41
9.44248	0.402
9.4796	0.357
9.51671	0.269
9.55383	0.161
9.59095	0.099
9.62807	0.11
9.66518	0.122
9.7023	0.149
9.73942	0.189
9.77654	0.239
9.81365	0.3
9.85077	0.342
9.88789	0.373
9.92501	0.419
9.96212	0.443
9.99924	0.437
10.0364	0.346
10.0735	0.203
10.1106	0.214
10.1477	0.303
10.1848	0.37
10.2219	0.43
10.2591	0.461
10.2962	0.475
10.3333	0.497
10.3704	0.511
10.4075	0.53
10.4446	0.539
10.4818	0.552
10.5189	0.541
10.556	0.55
10.5931	0.584
10.6302	0.595
10.6674	0.604
10.7045	0.614
10.7416	0.631
10.7787	0.637
10.8158	0.653
10.8529	0.645
10.8901	0.654
10.9272	0.678
10.9643	0.695
11.0014	0.712
11.0385	0.723
11.0756	0.735
11.1128	0.751
11.1499	0.757
11.187	0.762
11.2241	0.763
11.2612	0.782
11.2983	0.793
11.3355	0.797
11.3726	0.78
11.4097	0.612
11.4468	0.496
11.4839	0.662
11.5211	0.735
11.5582	0.774
11.5953	0.804
11.6324	0.818
11.6695	0.827
11.7066	0.832
11.7438	0.835
11.7809	0.824
11.818	0.821
11.8551	0.828
11.8922	0.855
11.9293	0.852
11.9665	0.856
12.0036	0.852
12.0407	0.822
12.0778	0.79
12.1149	0.615
12.152	0.432
12.1892	0.32
12.2263	0.377
12.2634	0.483
12.3005	0.592
12.3376	0.718
12.3748	0.799
12.4119	0.847
12.449	0.867
12.4861	0.892
12.5232	0.895
12.5603	0.911
12.5975	0.914
12.6346	0.898
12.6717	0.855
12.7088	0.766
12.7459	0.51
12.783	0.339
12.8202	0.446
12.8573	0.597
12.8944	0.673
12.9315	0.701
12.9686	0.74
13.0057	0.76
13.0429	0.748
13.08	0.687
13.1171	0.651
13.1542	0.684
13.1913	0.701
13.2285	0.709
13.2656	0.695
13.3027	0.676
13.3398	0.673
13.3769	0.653
13.414	0.642
13.4512	0.639
13.4883	0.623
13.5254	0.609
13.5625	0.604
13.5996	0.6
13.6367	0.578
13.6739	0.541
13.711	0.519
13.7481	0.547
13.7852	0.57
13.8223	0.583
13.8594	0.576
13.8966	0.586
13.9337	0.583
13.9708	0.595
14.0079	0.584
14.045	0.573
14.0822	0.52
14.1193	0.432
14.1564	0.326
14.1935	0.245
14.2306	0.223
14.2677	0.259
14.3049	0.335
14.342	0.427
14.3791	0.491
14.4162	0.533
14.4533	0.587
14.4904	0.615
14.5276	0.648
14.5647	0.662
14.6018	0.674
14.6389	0.671
14.676	0.662
14.7131	0.642
14.7503	0.626
14.7874	0.642
14.8245	0.653
14.8616	0.674
14.8987	0.66
14.9359	0.642
14.973	0.64
15.0101	0.611
15.0472	0.587
15.0843	0.625
15.1214	0.671
15.1586	0.699
15.1957	0.682
15.2328	0.674
15.2699	0.66
15.307	0.642
15.3441	0.62
15.3813	0.598
15.4184	0.586
15.4555	0.564
15.4926	0.534
15.5297	0.506
15.5668	0.485
15.604	0.451
15.6411	0.423
15.6782	0.395
15.7153	0.374
15.7524	0.331
15.7896	0.318
15.8267	0.311
15.8638	0.301
15.9009	0.289
15.938	0.289
15.9751	0.286
