Infrared Spectrum: 2,4,6-TRINITRO RESORCINOL
Formula: C6 H3 N3 O8
CAS: 82-71-3
State: SOLID (MINERAL OIL MULL)
Class: COBLENTZ
Instrument: Not specified, most likely a prism, grating, or hybrid spectrometer.
Sampling: TRANSMISSION
Resolution: 4
Origin: WYANDOTTE CHEMICALS CORP., WYANDOTTE, MICHIGAN, USA
MICROMETERS	TRANSMITTANCE
2.02	0.472
2.06092	0.479
2.10184	0.479
2.14275	0.479
2.18367	0.481
2.22459	0.484
2.26551	0.493
2.30642	0.503
2.34734	0.515
2.38826	0.525
2.42918	0.534
2.47009	0.539
2.51101	0.539
2.55193	0.542
2.59285	0.568
2.63377	0.581
2.67468	0.539
2.7156	0.447
2.75652	0.465
2.79744	0.484
2.83835	0.508
2.87927	0.494
2.92019	0.486
2.96111	0.474
3.00203	0.455
3.04294	0.397
3.08386	0.293
3.12478	0.197
3.1657	0.16
3.20661	0.186
3.24753	0.18
3.28845	0.266
3.32937	0.197
3.37028	0.071
3.4112	0.054
3.45212	0.121
3.49304	0.121
3.53396	0.436
3.57487	0.54
3.61579	0.561
3.65671	0.587
3.69763	0.592
3.73854	0.592
3.77946	0.6
3.82038	0.645
3.8613	0.67
3.90221	0.675
3.94313	0.66
3.98405	0.686
4.02497	0.694
4.06589	0.699
4.1068	0.72
4.14772	0.728
4.18864	0.708
4.22956	0.709
4.27047	0.709
4.31139	0.75
4.35231	0.791
4.39323	0.791
4.43415	0.781
4.47506	0.776
4.51598	0.8
4.5569	0.793
4.59782	0.82
4.63873	0.824
4.67965	0.831
4.72057	0.846
4.76149	0.858
4.8024	0.853
4.84332	0.861
4.88424	0.872
4.92516	0.882
4.96608	0.875
5.00699	0.872
5.04791	0.882
5.08883	0.885
5.12975	0.89
5.17066	0.897
5.21158	0.914
5.2525	0.916
5.29342	0.916
5.33433	0.919
5.37525	0.926
5.41617	0.866
5.45709	0.933
5.49801	0.924
5.53892	0.941
5.57984	0.947
5.62076	0.952
5.66168	0.969
5.70259	0.962
5.74351	0.955
5.78443	0.935
5.82535	0.883
5.86627	0.795
5.90718	0.619
5.9481	0.493
5.98902	0.199
6.02994	0.071
6.07085	0.073
6.11177	0.201
6.15269	0.266
6.19361	0.098
6.23452	0.063
6.27544	0.068
6.31636	0.107
6.35728	0.17
6.3982	0.1
6.43911	0.08
6.48003	0.136
6.52095	0.233
6.56187	0.283
6.60278	0.327
6.6437	0.331
6.68462	0.192
6.72554	0.08
6.76646	0.047
6.80737	0.052
6.84829	0.124
6.88921	0.226
6.93013	0.29
6.97104	0.349
7.01196	0.409
7.05288	0.407
7.0938	0.354
7.13471	0.276
7.17563	0.201
7.21655	0.059
7.25747	0.047
7.29839	0.083
7.3393	0.126
7.38022	0.1
7.42114	0.075
7.46206	0.063
7.50297	0.052
7.54389	0.051
7.58481	0.047
7.62573	0.04
7.66664	0.052
7.70756	0.076
7.74848	0.116
7.7894	0.151
7.83032	0.174
7.87123	0.189
7.91215	0.201
7.95307	0.156
7.99399	0.165
8.0349	0.244
8.07582	0.325
8.11674	0.283
8.15766	0.194
8.19858	0.145
8.23949	0.141
8.28041	0.16
8.32133	0.174
8.36225	0.199
8.40316	0.186
8.44408	0.116
8.485	0.085
8.52592	0.116
8.56683	0.15
8.60775	0.194
8.64867	0.23
8.68959	0.278
8.73051	0.322
8.77142	0.356
8.81234	0.395
8.85326	0.426
8.89418	0.45
8.93509	0.457
8.97601	0.467
9.01693	0.46
9.05785	0.39
9.09876	0.228
9.13968	0.083
9.1806	0.059
9.22152	0.058
9.26244	0.063
9.30335	0.087
9.34427	0.138
9.38519	0.233
9.42611	0.312
9.46702	0.366
9.50794	0.411
9.54886	0.448
9.58978	0.467
9.6307	0.481
9.67161	0.498
9.71253	0.511
9.75345	0.529
9.79437	0.54
9.83528	0.564
9.8762	0.573
9.91712	0.588
9.95804	0.604
9.99895	0.622
10.0399	0.641
10.0808	0.651
10.1217	0.66
10.1626	0.674
10.2035	0.684
10.2445	0.687
10.2854	0.694
10.3263	0.706
10.3672	0.715
10.4081	0.723
10.449	0.725
10.49	0.728
10.5309	0.735
10.5718	0.735
10.6127	0.726
10.6536	0.704
10.6946	0.593
10.7355	0.286
10.7764	0.088
10.8173	0.211
10.8582	0.39
10.8991	0.426
10.9401	0.288
10.981	0.527
11.0219	0.598
11.0628	0.622
11.1037	0.658
11.1447	0.67
11.1856	0.684
11.2265	0.689
11.2674	0.694
11.3083	0.703
11.3492	0.713
11.3902	0.721
11.4311	0.716
11.472	0.725
11.5129	0.726
11.5538	0.723
11.5947	0.73
11.6357	0.737
11.6766	0.732
11.7175	0.733
11.7584	0.735
11.7993	0.735
11.8403	0.735
11.8812	0.735
11.9221	0.735
11.963	0.733
12.0039	0.696
12.0448	0.682
12.0858	0.716
12.1267	0.725
12.1676	0.721
12.2085	0.725
12.2494	0.726
12.2903	0.725
12.3313	0.713
12.3722	0.72
12.4131	0.711
12.454	0.708
12.4949	0.694
12.5359	0.679
12.5768	0.667
12.6177	0.634
12.6586	0.571
12.6995	0.433
12.7404	0.216
12.7814	0.215
12.8223	0.296
12.8632	0.433
12.9041	0.464
12.945	0.457
12.9859	0.435
13.0269	0.402
13.0678	0.302
13.1087	0.177
13.1496	0.138
13.1905	0.15
13.2315	0.182
13.2724	0.208
13.3133	0.203
13.3542	0.184
13.3951	0.167
13.436	0.162
13.477	0.158
13.5179	0.151
13.5588	0.139
13.5997	0.138
13.6406	0.129
13.6815	0.133
13.7225	0.151
13.7634	0.175
13.8043	0.18
13.8452	0.162
13.8861	0.15
13.9271	0.133
13.968	0.133
14.0089	0.134
14.0498	0.141
14.0907	0.156
14.1316	0.167
14.1726	0.175
14.2135	0.172
14.2544	0.167
14.2953	0.158
14.3362	0.151
14.3772	0.141
14.4181	0.134
14.459	0.136
14.4999	0.141
14.5408	0.148
14.5817	0.153
14.6227	0.156
14.6636	0.162
14.7045	0.172
14.7454	0.175
14.7863	0.194
14.8272	0.215
14.8682	0.23
14.9091	0.249
14.95	0.273
14.9909	0.291
15.0318	0.317
15.0728	0.31
15.1137	0.312
15.1546	0.339
15.1955	0.377
15.2364	0.401
15.2773	0.419
15.3183	0.43
15.3592	0.443
15.4001	0.447
15.441	0.441
15.4819	0.435
15.5228	0.431
15.5638	0.433
15.6047	0.433
15.6456	0.426
15.6865	0.421
15.7274	0.416
15.7684	0.419
15.8093	0.426
15.8502	0.421
15.8911	0.43
15.932	0.435
15.9729	0.445
