Infrared Spectrum: Naphthaleneethylenequinone
Formula: C 12 H 6 O 2
CAS: 82-86-0
State: gas
Origin: EPA-IR VAPOR PHASE LIBRARY
1/CM	ABSORBANCE
549.8	0.001382
559.445	0.001414
569.09	0.00137
578.734	0.001341
588.379	0.001296
598.024	0.001282
607.669	0.001345
617.313	0.001536
626.958	0.001326
636.603	0.001387
646.248	0.001498
655.893	0.001459
665.537	0.001312
675.182	0.001598
684.827	0.001768
694.472	0.001728
704.116	0.00157
713.761	0.001711
723.406	0.001638
733.051	0.0015
742.695	0.001808
752.34	0.001779
761.985	0.00348
771.63	0.00697
781.275	0.00582
790.919	0.00297
800.564	0.0019792
810.209	0.0025154
819.854	0.00343
829.498	0.00513
839.143	0.0027287
848.788	0.001795
858.433	0.001708
868.078	0.0018432
877.722	0.0027409
887.367	0.00505
897.012	0.00375
906.657	0.00195784
916.301	0.0018399
925.946	0.001764
935.591	0.001732
945.236	0.001822
954.88	0.00191291
964.525	0.0019013
974.17	0.0024326
983.815	0.00337
993.46	0.00437
1003.1	0.00769
1012.75	0.00589
1022.39	0.0022295
1032.04	0.001718
1041.68	0.001738
1051.33	0.0023672
1060.97	0.0023751
1070.62	0.0020372
1080.26	0.001749
1089.91	0.002139
1099.55	0.0022368
1109.2	0.0022077
1118.84	0.001735
1128.49	0.001633
1138.13	0.00195082
1147.78	0.0021467
1157.42	0.001025
1167.07	0.001558
1176.71	0.001757
1186.36	0.001046
1196	0.00083
1205.64	0.001177
1215.29	0.00074
1224.93	0.00015
1234.58	0.00031
1244.22	0.00077
1253.87	0.001187
1263.51	0.0042
1273.16	0.00535
1282.8	0.001457
1292.45	0.001185
1302.09	0.001327
1311.74	0.001406
1321.38	0.001338
1331.03	0.001407
1340.67	0.001451
1350.32	0.001599
1359.96	0.001613
1369.61	0.001723
1379.25	0.001653
1388.9	0.001518
1398.54	0.001533
1408.18	0.001814
1417.83	0.0023276
1427.47	0.0028778
1437.12	0.00297
1446.76	0.0024194
1456.41	0.0018764
1466.05	0.0018959
1475.7	0.0021774
1485.34	0.0028816
1494.99	0.0027095
1504.63	0.0018634
1514.28	0.00196113
1523.92	0.0018813
1533.57	0.0019066
1543.21	0.0018206
1552.86	0.00193594
1562.5	0.0021431
1572.15	0.0022113
1581.79	0.0028788
1591.44	0.00448
1601.08	0.00535
1610.73	0.00476
1620.37	0.00378
1630.01	0.0025435
1639.66	0.00196338
1649.3	0.0020095
1658.95	0.00193852
1668.59	0.0018206
1678.24	0.0020507
1687.88	0.0021235
1697.53	0.0022064
1707.17	0.00302
1716.82	0.00413
1726.46	0.00683
1736.11	0.02244
1745.75	0.03692
1755.4	0.02084
1765.04	0.00958
1774.69	0.00537
1784.33	0.00399
1793.98	0.0026871
1803.62	0.0021353
1813.27	0.00197131
1822.91	0.00196489
1832.55	0.0021886
1842.2	0.0022295
1851.84	0.0018252
1861.49	0.00174
1871.13	0.0018456
1880.78	0.0018951
1890.42	0.00201563
1900.07	0.00193677
1909.71	0.0018285
1919.36	0.00177
1929	0.0018651
1938.65	0.0022241
1948.29	0.0021986
1957.94	0.0018884
1967.58	0.001737
1977.23	0.001719
1986.87	0.0019046
1996.52	0.00194466
2006.16	0.001818
2015.81	0.001811
2025.45	0.001781
2035.1	0.001758
2044.74	0.001781
2054.38	0.001678
2064.03	0.0018698
2073.67	0.001804
2083.32	0.001756
2092.96	0.001744
2102.61	0.001736
2112.25	0.001747
2121.9	0.001782
2131.54	0.001818
2141.19	0.001699
2150.83	0.0018973
2160.48	0.001781
2170.12	0.0018513
2179.77	0.001811
2189.41	0.001779
2199.06	0.0018695
2208.7	0.001736
2218.35	0.001704
2227.99	0.00193644
2237.64	0.001807
2247.28	0.0018243
2256.92	0.001883
2266.57	0.00194596
2276.21	0.001853
2285.86	0.0018539
2295.5	0.0018312
2305.15	0.0018435
2314.79	0.001709
2324.44	0.001809
2334.08	0.001799
2343.73	0.00194209
2353.37	0.0017
2363.02	0.001754
2372.66	0.00192819
2382.31	0.001749
2391.95	0.0018446
2401.6	0.0018476
2411.24	0.001818
2420.89	0.0018573
2430.53	0.0018978
2440.18	0.0018342
2449.82	0.001813
2459.47	0.0018329
2469.11	0.00193355
2478.75	0.00192955
2488.4	0.00191932
2498.04	0.001713
2507.69	0.00191482
2517.33	0.0018385
2526.98	0.001755
2536.62	0.0018992
2546.27	0.001738
2555.91	0.00193023
2565.56	0.0020251
2575.2	0.001718
2584.85	0.0018666
2594.49	0.0019049
2604.14	0.00197064
2613.78	0.0018695
2623.43	0.001846
2633.07	0.001777
2642.72	0.0020227
2652.36	0.0018241
2662.01	0.0018424
2671.65	0.0019598
2681.29	0.001778
2690.94	0.0018606
2700.58	0.0018532
2710.23	0.0018621
2719.87	0.001878
2729.52	0.00194086
2739.16	0.001817
2748.81	0.00201898
2758.45	0.00194148
2768.1	0.0020508
2777.74	0.0018945
2787.39	0.00196942
2797.03	0.00194079
2806.68	0.00197403
2816.32	0.0018782
2825.97	0.0018751
2835.61	0.0019027
2845.26	0.00191181
2854.9	0.00201102
2864.55	0.0019387
2874.19	0.0018615
2883.84	0.00195559
2893.48	0.0018547
2903.12	0.0018471
2912.77	0.0018325
2922.41	0.00198744
2932.06	0.0020587
2941.7	0.0018562
2951.35	0.001854
2960.99	0.00198487
2970.64	0.0018682
2980.28	0.0020297
2989.93	0.0018794
2999.57	0.00193759
3009.22	0.0018663
3018.86	0.0021007
3028.51	0.0021502
3038.15	0.0021183
3047.8	0.0028442
3057.44	0.00362
3067.09	0.00429
3076.73	0.00354
3086.38	0.0028388
3096.02	0.0024202
3105.67	0.0020442
3115.31	0.0018893
3124.95	0.0020603
3134.6	0.001825
3144.24	0.0020592
3153.89	0.001589
3163.53	0.001769
3173.18	0.001765
3182.82	0.0018917
3192.47	0.0018671
3202.11	0.00163
3211.76	0.001849
3221.4	0.001655
3231.05	0.0018885
3240.69	0.001635
3250.34	0.001681
3259.98	0.001812
3269.63	0.00197107
3279.27	0.001756
3288.92	0.001798
3298.56	0.0020643
3308.21	0.0018288
3317.85	0.001817
3327.49	0.001717
3337.14	0.001806
3346.78	0.001574
3356.43	0.001593
3366.07	0.001444
3375.72	0.001664
3385.36	0.001742
3395.01	0.001809
3404.65	0.00198559
3414.3	0.001745
3423.94	0.0018344
3433.59	0.0019071
3443.23	0.001674
3452.88	0.001783
3462.52	0.00201503
3472.17	0.002279
3481.81	0.0024668
3491.46	0.0020271
3501.1	0.001831
3510.75	0.00191354
3520.39	0.0018319
3530.04	0.0018841
3539.68	0.001712
3549.32	0.0018428
3558.97	0.00166
3568.61	0.001633
3578.26	0.001804
3587.9	0.001746
3597.55	0.001632
3607.19	0.0018882
3616.84	0.001647
3626.48	0.0018382
3636.13	0.001499
3645.77	0.001537
3655.42	0.001593
3665.06	0.001538
3674.71	0.001618
3684.35	0.0018874
3694	0.001431
3703.64	0.001706
3713.29	0.00171
3722.93	0.00158
3732.58	0.0018567
3742.22	0.001399
3751.86	0.001706
3761.51	0.001544
3771.15	0.001729
3780.8	0.00169
3790.44	0.001739
3800.09	0.00152
3809.73	0.0018251
3819.38	0.001871
3829.02	0.001759
3838.67	0.001505
3848.31	0.0018551
3857.96	0.00198996
3867.6	0.001457
3877.25	0.00197623
3886.89	0.001322
3896.54	0.001608
3906.18	0.00191346
3915.83	0.001673
3925.47	0.001524
3935.12	0.001819
3944.76	0.001553
3954.41	0.00163
3964.05	0.001431
3973.69	0.001666
3983.34	0.001645
3992.98	0.001736
