Infrared Spectrum: IR_5525
Formula: C6 H10 O2
CAS: 820-71-3
State: SOLUTION (10% IN CCl4 FOR 3800-1300, 10% IN CS2 FOR 1300-650, AND 10% IN CCl4 FOR 650-250 CM^-^1)
Class: COBLENTZ III
Instrument: PERKIN-ELMER 521 (GRATING)
Instrument parameters: FILTERS AT 3150, 2500, 2000, 1150, 700, 410. GRATING CHANGES: 2000, 630 CM^-^1
Sampling: TRANSMISSION
Path length: 0.012 CM, 0.011 CM, AND 0.012 CM
Resolution: 2
Origin: DOW CORNING CORP.
1/CM	TRANSMITTANCE
244.496	0.619
253.864	0.611
263.231	0.606
272.599	0.632
281.967	0.643
291.335	0.661
300.702	0.683
310.07	0.702
319.438	0.728
328.805	0.744
338.173	0.777
347.541	0.789
356.908	0.782
366.276	0.784
375.644	0.789
385.012	0.787
394.379	0.741
403.747	0.681
413.115	0.681
422.482	0.79
431.85	0.782
441.218	0.724
450.585	0.718
459.953	0.823
469.321	0.897
478.689	0.922
488.056	0.934
497.424	0.938
506.792	0.936
516.159	0.931
525.527	0.902
534.895	0.811
544.262	0.69
553.63	0.842
562.998	0.911
572.366	0.925
581.733	0.922
591.101	0.893
600.469	0.521
609.836	0.834
619.204	0.871
628.572	0.83
637.939	0.819
647.307	0.88
656.675	0.886
666.043	0.93
675.41	0.931
684.778	0.925
694.146	0.921
703.513	0.911
712.881	0.911
722.249	0.93
731.616	0.933
740.984	0.936
750.352	0.936
759.72	0.934
769.087	0.93
778.455	0.929
787.823	0.925
797.19	0.919
806.558	0.911
815.926	0.887
825.293	0.84
834.661	0.794
844.029	0.734
853.397	0.814
862.764	0.833
872.132	0.813
881.5	0.715
890.867	0.308
900.235	0.186
909.603	0.132
918.97	0.507
928.338	0.727
937.706	0.763
947.074	0.68
956.441	0.436
965.809	0.638
975.177	0.664
984.544	0.63
993.912	0.491
1003.28	0.476
1012.65	0.352
1022.02	0.121
1031.38	0.146
1040.75	0.271
1050.12	0.193
1059.49	0.222
1068.85	0.454
1078.22	0.608
1087.59	0.674
1096.96	0.733
1106.32	0.768
1115.69	0.773
1125.06	0.82
1134.43	0.828
1143.8	0.821
1153.16	0.803
1162.53	0.767
1171.9	0.72
1181.27	0.667
1190.63	0.571
1200	0.396
1209.37	0.171
1218.74	0.005
1228.1	0.005
1237.47	0.016
1246.84	0.069
1256.21	0.102
1265.58	0.214
1274.94	0.387
1284.31	0.478
1293.68	0.457
1303.05	0.617
1312.41	0.719
1321.78	0.742
1331.15	0.746
1340.52	0.729
1349.88	0.601
1359.25	0.42
1368.62	0.098
1377.99	0.14
1387.36	0.338
1396.72	0.494
1406.09	0.577
1415.46	0.556
1424.83	0.477
1434.19	0.306
1443.56	0.284
1452.93	0.251
1462.3	0.391
1471.66	0.58
1481.03	0.699
1490.4	0.737
1499.77	0.768
1509.14	0.803
1518.5	0.829
1527.87	0.827
1537.24	0.843
1546.61	0.856
1555.97	0.847
1565.34	0.84
1574.71	0.837
1584.08	0.832
1593.44	0.82
1602.81	0.818
1612.18	0.803
1621.55	0.796
1630.92	0.77
1640.28	0.728
1649.65	0.601
1659.02	0.446
1668.39	0.5921
1677.75	0.684
1687.12	0.667
1696.49	0.609
1705.86	0.536
1715.22	0.467
1724.59	0.316
1733.96	0.016
1743.33	0.008
1752.7	0.017
1762.06	0.094
1771.43	0.324
1780.8	0.452
1790.17	0.611
1799.53	0.688
1808.9	0.718
1818.27	0.742
1827.64	0.767
1837.01	0.803
1846.37	0.83
1855.74	0.842
1865.11	0.849
1874.48	0.856
1883.84	0.862
1893.21	0.866
1902.58	0.862
1911.95	0.862
1921.31	0.867
1930.68	0.872
1940.05	0.868
1949.42	0.873
1958.79	0.876
1968.15	0.878
1977.52	0.878
1986.89	0.878
1996.26	0.878
2005.62	0.877
2014.99	0.8801
2024.36	0.883
2033.73	0.882
2043.09	0.8793
2052.46	0.876
2061.83	0.867
2071.2	0.8676
2080.57	0.8703
2089.93	0.877
2099.3	0.877
2108.67	0.877
2118.04	0.876
2127.4	0.875
2136.77	0.8748
2146.14	0.873
2155.51	0.876
2164.87	0.88
2174.24	0.883
2183.61	0.885
2192.98	0.883
2202.35	0.8814
2211.71	0.881
2221.08	0.8846
2230.45	0.887
2239.82	0.89
2249.18	0.891
2258.55	0.891
2267.92	0.891
2277.29	0.892
2286.65	0.896
2296.02	0.8964
2305.39	0.897
2314.76	0.898
2324.13	0.8964
2333.49	0.892
2342.86	0.891
2352.23	0.8919
2361.6	0.897
2370.96	0.89
2380.33	0.892
2389.7	0.891
2399.07	0.891
2408.43	0.89
2417.8	0.89
2427.17	0.8855
2436.54	0.8815
2445.91	0.878
2455.27	0.877
2464.64	0.8752
2474.01	0.8778
2483.38	0.881
2492.74	0.885
2502.11	0.8882
2511.48	0.893
2520.85	0.896
2530.21	0.896
2539.58	0.896
2548.95	0.896
2558.32	0.896
2567.69	0.8924
2577.05	0.8879
2586.42	0.887
2595.79	0.887
2605.16	0.887
2614.52	0.888
2623.89	0.888
2633.26	0.89
2642.63	0.89
2652	0.89
2661.36	0.891
2670.73	0.8906
2680.1	0.8875
2689.47	0.8854
2698.83	0.882
2708.2	0.8785
2717.57	0.8752
2726.94	0.8461
2736.3	0.8529
2745.67	0.8621
2755.04	0.869
2764.41	0.872
2773.78	0.872
2783.14	0.8676
2792.51	0.8536
2801.88	0.847
2811.25	0.8406
2820.61	0.8323
2829.98	0.8138
2839.35	0.7738
2848.72	0.7239
2858.08	0.6781
2867.45	0.6425
2876.82	0.604
2886.19	0.6236
2895.56	0.627
2904.92	0.5761
2914.29	0.4715
2923.66	0.425
2933.03	0.4161
2942.39	0.37
2951.76	0.4478
2961.13	0.5089
2970.5	0.3983
2979.86	0.3743
2989.23	0.4794
2998.6	0.6437
3007.97	0.7207
3017.34	0.7508
3026.7	0.7603
3036.07	0.7804
3045.44	0.7965
3054.81	0.7994
3064.17	0.7836
3073.54	0.7093
3082.91	0.6112
3092.28	0.6997
3101.64	0.8041
3111.01	0.8421
3120.38	0.8581
3129.75	0.868
3139.12	0.8712
3148.48	0.875
3157.85	0.8774
3167.22	0.881
3176.59	0.8841
3185.95	0.886
3195.32	0.887
3204.69	0.888
3214.06	0.89
3223.42	0.891
3232.79	0.892
3242.16	0.892
3251.53	0.892
3260.9	0.893
3270.26	0.893
3279.63	0.892
3289	0.892
3298.37	0.892
3307.73	0.89
3317.1	0.887
3326.47	0.8895
3335.84	0.89
3345.2	0.89
3354.57	0.89
3363.94	0.891
3373.31	0.892
3382.68	0.893
3392.04	0.8953
3401.41	0.896
3410.78	0.893
3420.15	0.89
3429.51	0.8854
3438.88	0.8766
3448.25	0.8637
3457.62	0.8445
3466.98	0.8417
3476.35	0.857
3485.72	0.8733
3495.09	0.8811
3504.46	0.886
3513.82	0.886
3523.19	0.886
3532.56	0.885
3541.93	0.8865
3551.29	0.89
3560.66	0.8927
3570.03	0.895
3579.4	0.897
3588.77	0.9
3598.13	0.9
3607.5	0.901
3616.87	0.901
3626.24	0.902
3635.6	0.904
3644.97	0.905
3654.34	0.905
3663.71	0.9045
3673.07	0.8992
3682.44	0.8957
3691.81	0.9042
3701.18	0.911
3710.55	0.91
3719.91	0.909
3729.28	0.909
3738.65	0.9037
3748.02	0.91
3757.38	0.912
3766.75	0.912
3776.12	0.911
