Infrared Spectrum: 5-Decanone
Formula: C 10 H 20 O
CAS: 820-29-1
State: gas
Instrument: HP-GC/MS/IRD
Origin: NIST Mass Spectrometry Data Center
1/CM	ABSORBANCE
550	0.0008645
562	0.000259
574	0.00021
586	6.3e-05
598	0.000126
610	0.000161
622	0.0002415
634	0.000231
646	0.0001155
658	3.85e-05
670	2.8e-05
682	0.000112
694	6.65e-05
706	0.000357
718	0.0005775
730	0.000861
742	0.001008
754	0.0008225
766	0.000616
778	0.0004585
790	0.0002765
802	0.0001225
814	0.0001365
826	8.4e-05
838	0.0001435
850	0.0002065
862	0.0001785
874	0.0002275
886	0.000315
898	0.0004305
910	0.0005215
922	0.0006545
934	0.000665
946	0.0007
958	0.0008085
970	0.00091
982	0.000945
994	0.0009835
1006	0.001162
1018	0.0018305
1030	0.002625
1042	0.003682
1054	0.003633
1066	0.0024955
1078	0.0017885
1090	0.0015995
1102	0.0018025
1114	0.0026425
1126	0.003717
1138	0.004074
1150	0.003682
1162	0.002989
1174	0.0020475
1186	0.001792
1198	0.002009
1210	0.002282
1222	0.0023765
1234	0.002443
1246	0.0024045
1258	0.0022575
1270	0.002142
1282	0.0022855
1294	0.002541
1306	0.0027125
1318	0.002856
1330	0.0035665
1342	0.0047145
1354	0.005523
1366	0.0051275
1378	0.003857
1390	0.0031885
1402	0.00266
1414	0.0031745
1426	0.003374
1438	0.0035945
1450	0.0044975
1462	0.00511
1474	0.003815
1486	0.0019425
1498	0.001064
1510	0.0006685
1522	0.0004725
1534	0.000385
1546	0.000294
1558	0.0002835
1570	0.000238
1582	0.0002275
1594	0.0002205
1606	0.0002485
1618	0.0002485
1630	0.000329
1642	0.0004305
1654	0.000574
1666	0.000875
1678	0.00147
1690	0.002639
1702	0.0059675
1714	0.014259
1726	0.0198275
1738	0.0113575
1750	0.003717
1762	0.001561
1774	0.00084
1786	0.000518
1798	0.000343
1810	0.0002555
1822	0.0001855
1834	0.0001505
1846	0.000112
1858	0.000105
1870	6.3e-05
1882	4.2e-05
1894	3.5e-05
1906	2.1e-05
1918	3.15e-05
1930	0
1942	7e-06
1954	1.4e-05
1966	7e-06
1978	7e-06
1990	2.45e-05
2002	3.15e-05
2014	2.45e-05
2026	3.85e-05
2038	4.2e-05
2050	4.55e-05
2062	4.55e-05
2074	5.6e-05
2086	1.75e-05
2098	4.2e-05
2110	3.5e-05
2122	5.6e-05
2134	4.55e-05
2146	5.95e-05
2158	5.95e-05
2170	5.25e-05
2182	4.55e-05
2194	4.9e-05
2206	3.85e-05
2218	2.8e-05
2230	4.55e-05
2242	4.2e-05
2254	2.8e-05
2266	2.45e-05
2278	3.5e-05
2290	1.75e-05
2302	1.75e-05
2314	2.45e-05
2326	7e-06
2338	2.8e-05
2350	2.45e-05
2362	4.55e-05
2374	5.25e-05
2386	4.9e-05
2398	4.2e-05
2410	5.95e-05
2422	4.2e-05
2434	3.85e-05
2446	3.85e-05
2458	3.5e-05
2470	2.8e-05
2482	3.15e-05
2494	4.2e-05
2506	3.5e-05
2518	3.5e-05
2530	5.6e-05
2542	4.55e-05
2554	7.35e-05
2566	9.45e-05
2578	0.0001015
2590	9.8e-05
2602	0.000126
2614	0.000133
2626	0.000196
2638	0.0002345
2650	0.000301
2662	0.0003535
2674	0.0003815
2686	0.0003535
2698	0.0003675
2710	0.0003815
2722	0.0004305
2734	0.00056
2746	0.000693
2758	0.000679
2770	0.0007875
2782	0.0009205
2794	0.001239
2806	0.0016555
2818	0.0021665
2830	0.002975
2842	0.004529
2854	0.0079905
2866	0.0133
2878	0.016625
2890	0.0170065
2902	0.016793
2914	0.0205485
2926	0.02814
2938	0.0346255
2950	0.0332675
2962	0.0340585
2974	0.028889
2986	0.0128975
2998	0.006188
3010	0.0035875
3022	0.0024535
3034	0.001841
3046	0.0014175
3058	0.001099
3070	0.0009345
3082	0.0008225
3094	0.000714
3106	0.000609
3118	0.000518
3130	0.0004375
3142	0.000406
3154	0.0003605
3166	0.000343
3178	0.0003325
3190	0.0002485
3202	0.0002205
3214	0.0002065
3226	0.0001295
3238	0.000133
3250	9.45e-05
3262	6.3e-05
3274	4.2e-05
3286	5.6e-05
3298	3.85e-05
3310	4.55e-05
3322	5.6e-05
3334	5.25e-05
3346	9.45e-05
3358	8.4e-05
3370	7.7e-05
3382	0.0001365
3394	0.000168
3406	0.000217
3418	0.000343
3430	0.000413
3442	0.0003255
3454	0.0001925
3466	0.0001295
3478	8.75e-05
3490	0.0001015
3502	3.5e-05
3514	4.55e-05
3526	4.2e-05
3538	9.45e-05
3550	2.45e-05
3562	5.95e-05
3574	5.25e-05
3586	8.4e-05
3598	4.2e-05
3610	4.55e-05
3622	8.05e-05
3634	0.000119
3646	0.000112
3658	0.0001155
3670	9.8e-05
3682	8.75e-05
3694	0.000133
3706	0.0001295
3718	0.000105
3730	0.0001155
3742	0.0001085
3754	0.000126
3766	8.4e-05
3778	0.00014
3790	0.0001365
3802	0.000105
3814	0.0001155
3826	0.000168
3838	0.0001575
