Infrared Spectrum: 1-Undecene
Formula: C 11 H 22
CAS: 821-95-4
State: gas
Instrument: HP-GC/MS/IRD
Origin: NIST Mass Spectrometry Data Center
1/CM	ABSORBANCE
550	0.0003328
562	0.0001404
574	6.76e-05
586	7.02e-05
598	9.88e-05
610	0.0001586
622	0.0002236
634	0.0002886
646	0.000208
658	0.000143
670	3.9e-05
682	8.32e-05
694	0.000104
706	0.00026
718	0.0003432
730	0.0003042
742	0.000195
754	0.0001768
766	0.000195
778	0.0001612
790	0.0001066
802	7.8e-05
814	6.24e-05
826	0.0001456
838	0.0002054
850	0.000195
862	0.0002522
874	0.0004238
886	0.0006266
898	0.0012272
910	0.0024622
922	0.0018434
934	0.0008918
946	0.0006214
958	0.0005616
970	0.000611
982	0.0008658
994	0.0011414
1006	0.0007384
1018	0.0004992
1030	0.0003588
1042	0.0003042
1054	0.0002496
1066	0.0002236
1078	0.0002652
1090	0.0002002
1102	0.0001456
1114	0.0001664
1126	0.0001378
1138	0.000104
1150	0.0001248
1162	9.1e-05
1174	0.000117
1186	5.46e-05
1198	0.000104
1210	0.0001248
1222	0.0001066
1234	0.0001196
1246	0.000169
1258	0.0001872
1270	0.000221
1282	0.0002782
1294	0.0003718
1306	0.0004186
1318	0.000377
1330	0.0004134
1342	0.000572
1354	0.0006786
1366	0.0005564
1378	0.0005356
1390	0.0004914
1402	0.0004212
1414	0.0005018
1426	0.0006448
1438	0.0010374
1450	0.001755
1462	0.001976
1474	0.001287
1486	0.000585
1498	0.0003146
1510	0.0001508
1522	0.00013
1534	0.0001326
1546	0.0001014
1558	0.0001014
1570	0.0001196
1582	0.0001196
1594	0.0001638
1606	0.0002288
1618	0.000377
1630	0.000741
1642	0.0011076
1654	0.0004602
1666	0.0001872
1678	8.84e-05
1690	6.24e-05
1702	4.16e-05
1714	2.6e-05
1726	1.82e-05
1738	2.34e-05
1750	7.8e-06
1762	7.8e-06
1774	4.16e-05
1786	3.38e-05
1798	6.5e-05
1810	0.0001222
1822	0.000234
1834	0.00026
1846	0.0001144
1858	7.02e-05
1870	5.2e-05
1882	3.12e-05
1894	5.46e-05
1906	5.2e-05
1918	2.86e-05
1930	4.16e-05
1942	2.6e-05
1954	2.86e-05
1966	6.24e-05
1978	5.2e-05
1990	4.16e-05
2002	4.16e-05
2014	4.68e-05
2026	5.72e-05
2038	6.24e-05
2050	5.72e-05
2062	4.16e-05
2074	3.9e-05
2086	4.68e-05
2098	3.12e-05
2110	2.6e-05
2122	2.86e-05
2134	3.38e-05
2146	3.64e-05
2158	4.42e-05
2170	2.34e-05
2182	2.08e-05
2194	4.68e-05
2206	2.86e-05
2218	2.6e-05
2230	2.08e-05
2242	2.6e-05
2254	2.08e-05
2266	3.12e-05
2278	1.82e-05
2290	2.86e-05
2302	3.64e-05
2314	0
2326	2.86e-05
2338	6.24e-05
2350	3.9e-05
2362	3.64e-05
2374	2.6e-06
2386	2.34e-05
2398	2.6e-05
2410	2.6e-05
2422	3.9e-05
2434	1.3e-05
2446	3.12e-05
2458	3.9e-05
2470	2.34e-05
2482	3.9e-05
2494	4.16e-05
2506	4.42e-05
2518	5.72e-05
2530	8.84e-05
2542	6.24e-05
2554	8.58e-05
2566	9.62e-05
2578	0.0001066
2590	8.58e-05
2602	0.0001066
2614	0.0001248
2626	0.0001664
2638	0.0001924
2650	0.0002106
2662	0.0002392
2674	0.0002704
2686	0.0002912
2698	0.0002548
2710	0.0002288
2722	0.0002678
2734	0.0003354
2746	0.0003198
2758	0.0003536
2770	0.0004186
2782	0.0004836
2794	0.0006448
2806	0.0008502
2818	0.0011466
2830	0.0017108
2842	0.0030732
2854	0.0066924
2866	0.0092976
2878	0.0074178
2890	0.0062608
2902	0.0076206
2914	0.0126776
2926	0.022724
2938	0.0244218
2950	0.014144
2962	0.009724
2974	0.0076128
2986	0.0041002
2998	0.0027456
3010	0.0020878
3022	0.001378
3034	0.0009984
3046	0.0008788
3058	0.000936
3070	0.0012246
3082	0.0018356
3094	0.0013624
3106	0.0006214
3118	0.0004056
3130	0.000338
3142	0.0002678
3154	0.000234
3166	0.000195
3178	0.0001612
3190	0.0001508
3202	0.0001508
3214	0.0001144
3226	0.0001066
3238	6.24e-05
3250	8.58e-05
3262	6.76e-05
3274	6.76e-05
3286	9.62e-05
3298	0.0001144
3310	9.1e-05
3322	8.84e-05
3334	6.24e-05
3346	5.2e-05
3358	4.16e-05
3370	5.98e-05
3382	7.54e-05
3394	6.76e-05
3406	4.16e-05
3418	0.0001144
3430	7.54e-05
3442	4.16e-05
3454	4.42e-05
3466	7.28e-05
3478	9.36e-05
3490	7.28e-05
3502	3.9e-05
3514	4.68e-05
3526	0
3538	4.94e-05
3550	7.28e-05
3562	6.5e-05
3574	5.98e-05
3586	2.86e-05
3598	5.98e-05
3610	7.28e-05
3622	9.36e-05
3634	0.0001274
3646	0.0001014
3658	0.0001066
3670	9.62e-05
3682	0.0001404
3694	0.0001118
3706	0.0001274
3718	0.0001196
3730	0.00013
3742	0.0001092
3754	0.0001092
3766	0.0001248
3778	0.0001378
3790	0.0001586
3802	0.0001326
3814	0.0001586
3826	0.000156
3838	0.0001222
