Infrared Spectrum: 1,7-Dichloroheptane
Formula: C 7 H 14 Cl 2
CAS: 821-76-1
State: gas
Instrument: HP-GC/MS/IRD
Origin: NIST Mass Spectrometry Data Center
1/CM	ABSORBANCE
550	0.000105
562	0.0001375
574	4.75e-05
586	6.25e-05
598	0.0001675
610	0.000355
622	0.0006425
634	0.0011725
646	0.00236
658	0.0046
670	0.00373
682	0.0017525
694	0.0015225
706	0.001955
718	0.0035575
730	0.00564
742	0.006265
754	0.0038825
766	0.0024075
778	0.001585
790	0.0014475
802	0.0012875
814	0.0012425
826	0.001055
838	0.0010125
850	0.000905
862	0.000985
874	0.000955
886	0.001
898	0.0008825
910	0.000775
922	0.000715
934	0.0007275
946	0.0007425
958	0.0007275
970	0.0007375
982	0.0007675
994	0.00076
1006	0.0007375
1018	0.00089
1030	0.00083
1042	0.0006575
1054	0.0005825
1066	0.0005475
1078	0.0004525
1090	0.000335
1102	0.0002625
1114	0.0002175
1126	0.0001775
1138	0.0002
1150	0.00016
1162	0.000205
1174	0.0001725
1186	0.0002875
1198	0.0003425
1210	0.0004925
1222	0.0006925
1234	0.00106
1246	0.00149
1258	0.0023925
1270	0.003205
1282	0.00469
1294	0.0061675
1306	0.005485
1318	0.0041775
1330	0.002675
1342	0.00197
1354	0.00181
1366	0.00127
1378	0.00082
1390	0.0005075
1402	0.000505
1414	0.0007
1426	0.0013275
1438	0.00268
1450	0.0048275
1462	0.004085
1474	0.00212
1486	0.000855
1498	0.0004475
1510	0.000235
1522	0.0001775
1534	0.0001675
1546	0.00012
1558	7e-05
1570	0.000115
1582	6.25e-05
1594	9.75e-05
1606	9.5e-05
1618	5.5e-05
1630	3.5e-05
1642	7.5e-06
1654	0
1666	4.25e-05
1678	6.5e-05
1690	3.25e-05
1702	1.25e-05
1714	7.5e-06
1726	4.5e-05
1738	0
1750	1.5e-05
1762	2.5e-05
1774	2e-05
1786	2.5e-05
1798	2.25e-05
1810	3e-05
1822	3e-05
1834	2.25e-05
1846	2.5e-06
1858	2e-05
1870	3.5e-05
1882	5.5e-05
1894	3.5e-05
1906	4.5e-05
1918	2.25e-05
1930	5e-05
1942	4e-05
1954	4.75e-05
1966	4.5e-05
1978	3e-05
1990	3.75e-05
2002	5.5e-05
2014	8.75e-05
2026	8e-05
2038	0.000105
2050	0.0001025
2062	0.00012
2074	9.25e-05
2086	6.25e-05
2098	5.75e-05
2110	6e-05
2122	7.75e-05
2134	4.75e-05
2146	4.75e-05
2158	6.5e-05
2170	6.75e-05
2182	6.75e-05
2194	9e-05
2206	5.5e-05
2218	4.5e-05
2230	6e-05
2242	7e-05
2254	5e-05
2266	6.5e-05
2278	7.25e-05
2290	6.5e-05
2302	6.25e-05
2314	4e-05
2326	3.5e-05
2338	3.75e-05
2350	4.75e-05
2362	6.75e-05
2374	2.75e-05
2386	5.75e-05
2398	5.25e-05
2410	3.5e-05
2422	6e-05
2434	4.5e-05
2446	4e-05
2458	2.25e-05
2470	3.25e-05
2482	3e-05
2494	3e-05
2506	6.5e-05
2518	5.75e-05
2530	7.5e-05
2542	6.25e-05
2554	4e-05
2566	1e-05
2578	5e-05
2590	5.75e-05
2602	0.0001
2614	9.75e-05
2626	0.00012
2638	0.00016
2650	0.00019
2662	0.0002175
2674	0.000285
2686	0.0003175
2698	0.0003075
2710	0.0003025
2722	0.00029
2734	0.0003125
2746	0.00031
2758	0.0003325
2770	0.0003425
2782	0.0004575
2794	0.00058
2806	0.0007675
2818	0.0010525
2830	0.00164
2842	0.0029975
2854	0.00609
2866	0.0093725
2878	0.008845
2890	0.0068575
2902	0.00794
2914	0.0112725
2926	0.016925
2938	0.023835
2950	0.0231875
2962	0.017205
2974	0.01065
2986	0.006785
2998	0.0073025
3010	0.0037575
3022	0.0016425
3034	0.0009625
3046	0.0006475
3058	0.000505
3070	0.0003875
3082	0.0002575
3094	0.0002375
3106	0.000155
3118	0.000125
3130	0.0001475
3142	0.0001
3154	9.25e-05
3166	0.00012
3178	0.0001325
3190	0.0001025
3202	0.00011
3214	8.75e-05
3226	0.0001175
3238	7.5e-05
3250	4.75e-05
3262	3.25e-05
3274	8.25e-05
3286	3.5e-05
3298	5e-05
3310	7e-05
3322	6.5e-05
3334	4e-05
3346	8.75e-05
3358	4.5e-05
3370	3.75e-05
3382	8.75e-05
3394	7.5e-05
3406	3.5e-05
3418	3.5e-05
3430	5.25e-05
3442	0.0001175
3454	6.75e-05
3466	0
3478	6.5e-05
3490	0.0001025
3502	7.5e-05
3514	7.25e-05
3526	5.75e-05
3538	5.5e-05
3550	5.5e-05
3562	7e-05
3574	9.75e-05
3586	9e-05
3598	0.00013
3610	0.0001375
3622	9.25e-05
3634	0.000105
3646	0.000135
3658	0.000115
3670	7.75e-05
3682	9.5e-05
3694	0.000135
3706	0.0001025
3718	0.00014
3730	0.00013
3742	0.000125
3754	0.0001425
3766	5.75e-05
3778	0.0001125
3790	0.000135
3802	7.25e-05
3814	0.000145
3826	0.000195
3838	0.000115
