Infrared Spectrum: 2,2'-DICHLORODIETHYLAMINE HYDROCHLORIDE
Formula: C4 H10 Cl3 N
CAS: 821-48-7
State: SOLID (MINERAL OIL MULL)
Melting point: 213-215 C
Class: COBLENTZ
Instrument: Not specified, most likely a prism, grating, or hybrid spectrometer.
Sampling: TRANSMISSION
Resolution: 4
Origin: DOW CHEMICAL COMPANY
MICROMETERS	TRANSMITTANCE
2.048	0.5
2.08906	0.497
2.13011	0.507
2.17117	0.516
2.21222	0.516
2.25328	0.483
2.29433	0.471
2.33539	0.482
2.37644	0.509
2.4175	0.538
2.45855	0.545
2.49961	0.572
2.54066	0.591
2.58172	0.6
2.62278	0.625
2.66383	0.641
2.70489	0.647
2.74594	0.673
2.787	0.676
2.82805	0.704
2.86911	0.714
2.91016	0.716
2.95122	0.724
2.99227	0.738
3.03333	0.755
3.07438	0.755
3.11544	0.736
3.15649	0.637
3.19755	0.623
3.23861	0.545
3.27966	0.42
3.32072	0.271
3.36177	0.105
3.40283	0.022
3.44388	0.022
3.48494	0.022
3.52599	0.027
3.56705	0.054
3.6081	0.058
3.64916	0.049
3.69021	0.049
3.73127	0.049
3.77233	0.059
3.81338	0.063
3.85444	0.073
3.89549	0.102
3.93655	0.121
3.9776	0.189
4.01866	0.258
4.05971	0.152
4.10077	0.1
4.14182	0.121
4.18288	0.182
4.22393	0.196
4.26499	0.242
4.30604	0.323
4.3471	0.379
4.38816	0.413
4.42921	0.423
4.47027	0.432
4.51132	0.468
4.55238	0.497
4.59343	0.523
4.63449	0.541
4.67554	0.56
4.7166	0.579
4.75765	0.586
4.79871	0.605
4.83976	0.617
4.88082	0.635
4.92188	0.651
4.96293	0.671
5.00399	0.683
5.04504	0.687
5.0861	0.678
5.12715	0.688
5.16821	0.705
5.20926	0.711
5.25032	0.709
5.29137	0.675
5.33243	0.611
5.37348	0.603
5.41454	0.658
5.4556	0.675
5.49665	0.702
5.53771	0.719
5.57876	0.728
5.61982	0.733
5.66087	0.729
5.70193	0.74
5.74298	0.74
5.78404	0.741
5.82509	0.75
5.86615	0.741
5.9072	0.731
5.94826	0.726
5.98931	0.726
6.03037	0.728
6.07143	0.724
6.11248	0.726
6.15354	0.719
6.19459	0.712
6.23565	0.676
6.2767	0.43
6.31776	0.535
6.35881	0.641
6.39987	0.658
6.44092	0.668
6.48198	0.668
6.52303	0.67
6.56409	0.671
6.60515	0.67
6.6462	0.652
6.68726	0.62
6.72831	0.553
6.76937	0.381
6.81042	0.102
6.85148	0.049
6.89253	0.083
6.93359	0.124
6.97464	0.148
7.0157	0.249
7.05675	0.258
7.09781	0.311
7.13887	0.302
7.17992	0.302
7.22098	0.271
7.26203	0.201
7.30309	0.319
7.34414	0.406
7.3852	0.403
7.42625	0.317
7.46731	0.341
7.50836	0.475
7.54942	0.516
7.59047	0.526
7.63153	0.329
7.67258	0.188
7.71364	0.276
7.7547	0.341
7.79575	0.415
7.83681	0.49
7.87786	0.541
7.91892	0.625
7.95997	0.639
8.00103	0.659
8.04208	0.688
8.08314	0.682
8.12419	0.6
8.16525	0.591
8.2063	0.685
8.24736	0.702
8.28842	0.675
8.32947	0.719
8.37053	0.76
8.41158	0.77
8.45264	0.774
8.49369	0.769
8.53475	0.762
8.5758	0.762
8.61686	0.752
8.65791	0.7
8.69897	0.719
8.74002	0.779
8.78108	0.801
8.82213	0.82
8.86319	0.825
8.90425	0.83
8.9453	0.832
8.98636	0.837
9.02741	0.839
9.06847	0.841
9.10952	0.841
9.15058	0.827
9.19163	0.81
9.23269	0.77
9.27374	0.765
9.3148	0.781
9.35585	0.743
9.39691	0.699
9.43797	0.634
9.47902	0.632
9.52008	0.567
9.56113	0.557
9.60219	0.676
9.64324	0.688
9.6843	0.724
9.72535	0.781
9.76641	0.782
9.80746	0.758
9.84852	0.743
9.88957	0.729
9.93063	0.663
9.97169	0.664
10.0127	0.745
10.0538	0.77
10.0949	0.796
10.1359	0.818
10.177	0.822
10.218	0.811
10.2591	0.791
10.3001	0.752
10.3412	0.654
10.3822	0.545
10.4233	0.369
10.4643	0.335
10.5054	0.388
10.5465	0.514
10.5875	0.586
10.6286	0.656
10.6696	0.712
10.7107	0.745
10.7517	0.764
10.7928	0.784
10.8338	0.794
10.8749	0.801
10.916	0.806
10.957	0.811
10.9981	0.817
11.0391	0.811
11.0802	0.781
11.1212	0.721
11.1623	0.615
11.2033	0.531
11.2444	0.499
11.2855	0.451
11.3265	0.408
11.3676	0.446
11.4086	0.608
11.4497	0.738
11.4907	0.791
11.5318	0.8
11.5728	0.687
11.6139	0.48
11.655	0.372
11.696	0.48
11.7371	0.663
11.7781	0.755
11.8192	0.788
11.8602	0.786
11.9013	0.716
11.9423	0.641
11.9834	0.67
12.0245	0.769
12.0655	0.834
12.1066	0.858
12.1476	0.873
12.1887	0.883
12.2297	0.885
12.2708	0.88
12.3118	0.873
12.3529	0.873
12.394	0.882
12.435	0.871
12.4761	0.858
12.5171	0.822
12.5582	0.765
12.5992	0.663
12.6403	0.577
12.6813	0.558
12.7224	0.598
12.7634	0.67
12.8045	0.736
12.8456	0.776
12.8866	0.808
12.9277	0.823
12.9687	0.832
13.0098	0.834
13.0508	0.822
13.0919	0.791
13.1329	0.723
13.174	0.6
13.2151	0.476
13.2561	0.41
13.2972	0.422
13.3382	0.504
13.3793	0.596
13.4203	0.659
13.4614	0.692
13.5024	0.714
13.5435	0.726
13.5846	0.729
13.6256	0.731
13.6667	0.733
13.7077	0.729
13.7488	0.723
13.7898	0.712
13.8309	0.711
13.8719	0.716
13.913	0.738
13.9541	0.764
13.9951	0.784
14.0362	0.803
14.0772	0.813
14.1183	0.815
14.1593	0.82
14.2004	0.822
14.2414	0.822
14.2825	0.817
14.3236	0.808
14.3646	0.803
14.4057	0.794
14.4467	0.781
14.4878	0.764
14.5288	0.733
14.5699	0.692
14.6109	0.625
14.652	0.541
14.6931	0.429
14.7341	0.317
14.7752	0.21
14.8162	0.153
14.8573	0.129
14.8983	0.117
14.9394	0.117
14.9804	0.124
15.0215	0.15
15.0626	0.174
15.1036	0.22
15.1447	0.278
15.1857	0.335
15.2268	0.401
15.2678	0.439
15.3089	0.461
15.3499	0.48
15.391	0.492
15.432	0.5
15.4731	0.5
15.5142	0.5
15.5552	0.5
15.5963	0.5
15.6373	0.495
15.6784	0.492
15.7194	0.49
15.7605	0.487
15.8015	0.482
15.8426	0.475
15.8837	0.473
