Infrared Spectrum: 2-DIPHENYL-CARBINOL-BENZOFURAN
Formula: C21 H16 O2
CAS: 82158-27-8
State: SOLID (1.0% IN KBr PELLET)
Class: COBLENTZ
Instrument: Not specified, most likely a prism, grating, or hybrid spectrometer.
Sampling: TRANSMISSION
Path length: 0.0355 CM THICK
Resolution: 4
Origin: ANDERSON PHYSICAL LABORATORY
1/CM	TRANSMITTANCE
667.603	0.527
676.03	0.456
684.457	0.4231
692.884	0.15
701.311	0.2528
709.738	0.5809
718.165	0.764
726.592	0.6451
735.019	0.4631
743.446	0.112
751.873	0.093
760.3	0.2188
768.727	0.7758
777.154	0.807
785.581	0.609
794.008	0.9439
802.435	0.918
810.862	0.803
819.289	0.354
827.716	0.783
836.143	0.921
844.57	0.8521
852.997	0.7999
861.424	0.803
869.851	0.5401
878.278	0.6047
886.705	0.7129
895.131	0.774
903.558	0.587
911.985	0.861
920.412	0.741
928.839	0.771
937.266	0.8329
945.693	0.855
954.12	0.786
962.547	0.5451
970.974	0.4019
979.401	0.765
987.828	0.801
996.255	0.641
1004.68	0.53
1013.11	0.5521
1021.54	0.306
1029.96	0.5001
1038.39	0.6858
1046.82	0.903
1055.24	0.908
1063.67	0.888
1072.1	0.851
1080.53	0.839
1088.95	0.846
1097.38	0.828
1105.81	0.7231
1114.23	0.731
1122.66	0.69
1131.09	0.5191
1139.51	0.4559
1147.94	0.542
1156.37	0.393
1164.79	0.277
1173.22	0.213
1181.65	0.5008
1190.08	0.5929
1198.5	0.593
1206.93	0.5189
1215.36	0.776
1223.78	0.785
1232.21	0.735
1240.64	0.576
1249.06	0.292
1257.49	0.297
1265.92	0.8267
1274.35	0.861
1282.77	0.822
1291.2	0.761
1299.63	0.668
1308.05	0.7439
1316.48	0.752
1324.91	0.711
1333.33	0.605
1341.76	0.433
1350.19	0.4419
1358.62	0.7259
1367.04	0.839
1375.47	0.846
1383.9	0.842
1392.32	0.813
1400.75	0.804
1409.18	0.809
1417.6	0.798
1426.03	0.731
1434.46	0.666
1442.89	0.572
1451.31	0.2591
1459.74	0.5747
1468.17	0.824
1476.59	0.74
1485.02	0.704
1493.45	0.445
1501.87	0.893
1510.3	0.914
1518.73	0.906
1527.16	0.903
1535.58	0.887
1544.01	0.869
1552.44	0.852
1560.86	0.842
1569.29	0.806
1577.72	0.726
1586.14	0.737
1594.57	0.716
1603	0.74
1611.42	0.785
1619.85	0.818
1628.28	0.815
1636.71	0.828
1645.13	0.834
1653.56	0.833
1661.99	0.831
1670.41	0.828
1678.84	0.834
1687.27	0.836
1695.69	0.836
1704.12	0.831
1712.55	0.827
1720.98	0.825
1729.4	0.831
1737.83	0.83
1746.26	0.824
1754.68	0.818
1763.11	0.807
1771.54	0.8
1779.96	0.797
1788.39	0.812
1796.82	0.813
1805.25	0.773
1813.67	0.797
1822.1	0.816
1830.53	0.815
1838.95	0.815
1847.38	0.812
1855.81	0.8
1864.23	0.794
1872.66	0.794
1881.09	0.785
1889.52	0.753
1897.94	0.75
1906.37	0.78
1914.8	0.792
1923.22	0.788
1931.65	0.785
1940.08	0.773
1948.5	0.776
1956.93	0.765
1965.36	0.765
1973.79	0.771
1982.21	0.771
1990.64	0.768
1999.07	0.792
2007.49	0.789
2015.92	0.7875
2024.35	0.785
2032.77	0.783
2041.2	0.785
2049.63	0.786
2058.05	0.785
2066.48	0.783
2074.91	0.7738
2083.34	0.7671
2091.76	0.7624
2100.19	0.7594
2108.62	0.758
2117.04	0.756
2125.47	0.756
2133.9	0.756
2142.32	0.756
2150.75	0.755
2159.18	0.7524
2167.61	0.7492
2176.03	0.747
2184.46	0.746
2192.89	0.746
2201.31	0.7443
2209.74	0.743
2218.17	0.739
2226.59	0.7358
2235.02	0.7323
2243.45	0.731
2251.88	0.732
2260.3	0.732
2268.73	0.732
2277.16	0.7319
2285.58	0.731
2294.01	0.7284
2302.44	0.725
2310.86	0.722
2319.29	0.723
2327.72	0.7224
2336.15	0.7202
2344.57	0.7187
2353	0.716
2361.43	0.712
2369.85	0.708
2378.28	0.705
2386.71	0.704
2395.13	0.702
2403.56	0.702
2411.99	0.7018
2420.42	0.7001
2428.84	0.699
2437.27	0.699
2445.7	0.6958
2454.12	0.693
2462.55	0.693
2470.98	0.695
2479.4	0.695
2487.83	0.695
2496.26	0.693
2504.68	0.69
2513.11	0.6848
2521.54	0.6755
2529.97	0.672
2538.39	0.671
2546.82	0.671
2555.25	0.6715
2563.67	0.672
2572.1	0.674
2580.53	0.6747
2588.95	0.674
2597.38	0.674
2605.81	0.672
2614.24	0.6704
2622.66	0.669
2631.09	0.6682
2639.52	0.6679
2647.94	0.664
2656.37	0.66
2664.8	0.659
2673.22	0.6572
2681.65	0.656
2690.08	0.654
2698.51	0.6505
2706.93	0.6479
2715.36	0.645
2723.79	0.645
2732.21	0.645
2740.64	0.642
2749.07	0.6399
2757.49	0.6354
2765.92	0.6321
2774.35	0.6226
2782.78	0.617
2791.2	0.6127
2799.63	0.6111
2808.06	0.609
2816.48	0.608
2824.91	0.6037
2833.34	0.603
2841.76	0.602
2850.19	0.5966
2858.62	0.594
2867.05	0.594
2875.47	0.594
2883.9	0.593
2892.33	0.589
2900.75	0.5812
2909.18	0.5788
2917.61	0.5771
2926.03	0.5708
2934.46	0.5611
2942.89	0.5541
2951.31	0.5452
2959.74	0.5287
2968.17	0.5191
2976.6	0.4989
2985.02	0.4835
2993.45	0.481
3001.88	0.481
3010.3	0.484
3018.73	0.4885
3027.16	0.4877
3035.58	0.484
3044.01	0.4845
3052.44	0.4942
3060.87	0.5008
3069.29	0.5183
3077.72	0.5415
3086.15	0.5526
3094.57	0.555
3103	0.5539
3111.43	0.551
3119.85	0.5493
3128.28	0.546
3136.71	0.5449
3145.14	0.5427
3153.56	0.5409
3161.99	0.5365
3170.42	0.534
3178.84	0.531
3187.27	0.53
3195.7	0.5272
3204.12	0.5216
3212.55	0.5173
3220.98	0.5138
3229.41	0.512
3237.83	0.5056
3246.26	0.5023
3254.69	0.4988
3263.11	0.4963
3271.54	0.489
3279.97	0.486
3288.39	0.4821
3296.82	0.4771
3305.25	0.4689
3313.68	0.4606
3322.1	0.451
3330.53	0.448
3338.96	0.4448
3347.38	0.4427
3355.81	0.436
3364.24	0.4322
3372.66	0.4233
3381.09	0.4176
3389.52	0.417
3397.94	0.4122
3406.37	0.4106
3414.8	0.4042
3423.23	0.3979
3431.65	0.396
3440.08	0.3861
3448.51	0.3672
3456.93	0.3578
3465.36	0.3432
3473.79	0.3294
3482.21	0.3139
3490.64	0.2582
3499.07	0.217
3507.5	0.2145
3515.92	0.2909
3524.35	0.3532
3532.78	0.4353
3541.2	0.4722
3549.63	0.4952
3558.06	0.5098
3566.48	0.5181
3574.91	0.5243
3583.34	0.527
3591.77	0.527
3600.19	0.527
3608.62	0.5261
3617.05	0.524
3625.47	0.522
3633.9	0.519
3642.33	0.5196
3650.75	0.5231
3659.18	0.525
3667.61	0.527
3676.04	0.5264
3684.46	0.525
3692.89	0.522
3701.32	0.522
3709.74	0.522
3718.17	0.521
3726.6	0.5193
3735.02	0.518
3743.45	0.5139
3751.88	0.509
3760.31	0.507
3768.73	0.506
3777.16	0.504
3785.59	0.503
3794.01	0.5001
3802.44	0.4997
3810.87	0.498
3819.29	0.4954
3827.72	0.495
3836.15	0.492
3844.57	0.492
3853	0.4907
3861.43	0.49
3869.86	0.4898
3878.28	0.4881
3886.71	0.486
3895.14	0.4811
3903.56	0.4796
3911.99	0.477
3920.42	0.477
3928.84	0.475
3937.27	0.474
3945.7	0.474
3954.13	0.4726
3962.55	0.471
3970.98	0.4676
3979.41	0.466
3987.83	0.466
