Infrared Spectrum: Benzylanthranilide
Formula: C 14 H 13 N O 2
CAS: 82185-41-9
State: gas
Origin: EPA-IR VAPOR PHASE LIBRARY
1/CM	ABSORBANCE
551.7	0.01532
563.274	0.01372
574.848	0.01365
586.421	0.01636
597.995	0.01604
609.569	0.01387
621.143	0.01245
632.717	0.01283
644.291	0.01371
655.864	0.01663
667.438	0.02439
679.012	0.02894
690.586	0.04252
702.16	0.04553
713.734	0.03258
725.307	0.03256
736.881	0.05143
748.455	0.0773
760.029	0.03537
771.603	0.01648
783.177	0.0133
794.75	0.01307
806.324	0.01265
817.898	0.0137
829.472	0.01468
841.046	0.01517
852.619	0.01452
864.193	0.01211
875.767	0.0119
887.341	0.01212
898.915	0.01217
910.489	0.01341
922.062	0.01063
933.636	0.01019
945.21	0.01184
956.784	0.01331
968.358	0.0127
979.932	0.01111
991.505	0.01082
1003.08	0.0135
1014.65	0.01571
1026.23	0.03012
1037.8	0.02505
1049.37	0.02918
1060.95	0.05781
1072.52	0.07981
1084.1	0.09948
1095.67	0.14911
1107.24	0.13554
1118.82	0.06599
1130.39	0.03364
1141.97	0.0277
1153.54	0.05966
1165.11	0.07079
1176.69	0.02272
1188.26	0.0167
1199.83	0.02197
1211.41	0.03466
1222.98	0.06935
1234.56	0.18986
1246.13	0.29642
1257.7	0.13004
1269.28	0.07698
1280.85	0.12842
1292.42	0.09836
1304	0.04228
1315.57	0.04631
1327.15	0.03274
1338.72	0.01883
1350.29	0.01261
1361.87	0.0139
1373.44	0.02294
1385.02	0.01562
1396.59	0.0089
1408.16	0.00752
1419.74	0.0078
1431.31	0.01085
1442.88	0.02047
1454.46	0.03771
1466.03	0.03427
1477.61	0.02886
1489.18	0.03854
1500.75	0.0314
1512.33	0.01341
1523.9	0.00975
1535.48	0.01065
1547.05	0.01561
1558.62	0.02765
1570.2	0.03571
1581.77	0.04199
1593.34	0.07699
1604.92	0.08882
1616.49	0.11134
1628.07	0.07171
1639.64	0.02766
1651.21	0.01621
1662.79	0.01454
1674.36	0.01728
1685.93	0.02979
1697.51	0.08275
1709.08	0.15537
1720.66	0.08668
1732.23	0.04862
1743.8	0.0262
1755.38	0.01366
1766.95	0.01014
1778.53	0.00815
1790.1	0.00786
1801.67	0.0071
1813.25	0.00532
1824.82	0.00437
1836.39	0.00391
1847.97	0.00404
1859.54	0.0043
1871.12	0.00452
1882.69	0.00472
1894.26	0.00468
1905.84	0.00529
1917.41	0.00559
1928.99	0.00513
1940.56	0.00501
1952.13	0.00449
1963.71	0.00355
1975.28	0.00266
1986.85	0.00249
1998.43	0.00244
2010	0.00244
2021.58	0.00255
2033.15	0.00268
2044.72	0.00264
2056.3	0.00255
2067.87	0.00258
2079.44	0.00249
2091.02	0.00235
2102.59	0.00222
2114.17	0.00223
2125.74	0.00218
2137.31	0.00207
2148.89	0.00204
2160.46	0.00209
2172.04	0.00199
2183.61	0.00188
2195.18	0.00182
2206.76	0.0018
2218.33	0.00175
2229.9	0.00169
2241.48	0.00158
2253.05	0.00157
2264.63	0.00166
2276.2	0.00164
2287.77	0.00163
2299.35	0.00172
2310.92	0.00196
2322.5	0.00217
2334.07	0.00205
2345.64	0.00208
2357.22	0.00202
2368.79	0.00191
2380.36	0.0018
2391.94	0.00174
2403.51	0.00167
2415.09	0.00153
2426.66	0.00146
2438.23	0.00147
2449.81	0.0016
2461.38	0.00159
2472.96	0.0016
2484.53	0.00158
2496.1	0.00152
2507.68	0.00143
2519.25	0.00151
2530.82	0.00151
2542.4	0.00132
2553.97	0.00128
2565.55	0.0013
2577.12	0.00135
2588.69	0.00139
2600.27	0.00145
2611.84	0.00159
2623.41	0.00164
2634.99	0.00185
2646.56	0.002
2658.14	0.00178
2669.71	0.00147
2681.28	0.00128
2692.86	0.00132
2704.43	0.00145
2716.01	0.00156
2727.58	0.00175
2739.15	0.00166
2750.73	0.00149
2762.3	0.00152
2773.87	0.00181
2785.45	0.00195
2797.02	0.00209
2808.6	0.00236
2820.17	0.00247
2831.74	0.0024
2843.32	0.00228
2854.89	0.00225
2866.47	0.00283
2878.04	0.0039
2889.61	0.00569
2901.19	0.00655
2912.76	0.0054
2924.33	0.00503
2935.91	0.00663
2947.48	0.01148
2959.06	0.01581
2970.63	0.01174
2982.2	0.00797
2993.78	0.00657
3005.35	0.00673
3016.92	0.01036
3028.5	0.0207
3040.07	0.0283
3051.65	0.02524
3063.22	0.02843
3074.79	0.03039
3086.37	0.02383
3097.94	0.01441
3109.52	0.00843
3121.09	0.00503
3132.66	0.00281
3144.24	0.00208
3155.81	0.00199
3167.38	0.00223
3178.96	0.00233
3190.53	0.00205
3202.11	0.0018
3213.68	0.00161
3225.25	0.00146
3236.83	0.00145
3248.4	0.00137
3259.98	0.0014
3271.55	0.00154
3283.12	0.00181
3294.7	0.00223
3306.27	0.00258
3317.84	0.00252
3329.42	0.00259
3340.99	0.00279
3352.57	0.00364
3364.14	0.0062
3375.71	0.01698
3387.29	0.03838
3398.86	0.0265
3410.43	0.01215
3422.01	0.00976
3433.58	0.00626
3445.16	0.00353
3456.73	0.0033
3468.3	0.00412
3479.88	0.00621
3491.45	0.01001
3503.03	0.0176
3514.6	0.02814
3526.17	0.02264
3537.75	0.00968
3549.32	0.00413
3560.89	0.00246
3572.47	0.00194
3584.04	0.00163
3595.62	0.00144
3607.19	0.0013
3618.76	0.00123
3630.34	0.00124
3641.91	0.00124
3653.49	0.00126
3665.06	0.00126
3676.63	0.00127
3688.21	0.00132
3699.78	0.00129
3711.35	0.00125
3722.93	0.00119
3734.5	0.00126
3746.08	0.0011
3757.65	0.00114
3769.22	0.00102
3780.8	0.00114
3792.37	0.0012
3803.94	0.0012
3815.52	0.00126
3827.09	0.00122
3838.67	0.00119
3850.24	0.00113
3861.81	0.00118
3873.39	0.00117
3884.96	0.00125
3896.54	0.00129
3908.11	0.00138
3919.68	0.0014
3931.26	0.00139
3942.83	0.00126
3954.4	0.00125
3965.98	0.00129
3977.55	0.00126
3989.13	0.00124
4000.7	0.00123
