Infrared Spectrum: trans-1,2-Dichlorocyclohexane
Formula: C 6 H 10 Cl 2
CAS: 822-86-6
State: gas
Instrument: HP-GC/MS/IRD
Origin: NIST Mass Spectrometry Data Center
1/CM	ABSORBANCE
550	0.000333
562	0.000204
574	3.6e-05
586	0.000186
598	0.000717
610	0.00324
622	0.00414
634	0.001317
646	0.000282
658	0.00027
670	0.000513
682	0.002367
694	0.006786
706	0.005973
718	0.001221
730	0.002076
742	0.004491
754	0.003402
766	0.00123
778	0.000312
790	0.000267
802	0.000594
814	0.001839
826	0.002994
838	0.002658
850	0.002025
862	0.001425
874	0.000948
886	0.000531
898	0.001686
910	0.003186
922	0.001992
934	0.000654
946	0.00027
958	0.000258
970	0.001077
982	0.002094
994	0.002523
1006	0.002664
1018	0.001308
1030	0.000504
1042	0.000399
1054	0.000276
1066	0.000225
1078	0.000162
1090	0.000102
1102	0.000174
1114	0.000285
1126	0.000534
1138	0.001104
1150	0.001044
1162	0.000324
1174	0.00027
1186	0.000654
1198	0.002544
1210	0.00519
1222	0.003993
1234	0.001041
1246	0.000615
1258	0.001173
1270	0.001698
1282	0.001455
1294	0.000591
1306	0.000282
1318	0.00045
1330	0.000909
1342	0.001461
1354	0.001344
1366	0.000738
1378	0.000249
1390	0.000141
1402	0.000201
1414	0.000492
1426	0.001443
1438	0.003543
1450	0.005043
1462	0.00384
1474	0.00159
1486	0.000411
1498	0.000207
1510	0.000144
1522	6.6e-05
1534	3.9e-05
1546	3.6e-05
1558	6e-05
1570	4.2e-05
1582	3.9e-05
1594	3.3e-05
1606	2.4e-05
1618	2.4e-05
1630	3.9e-05
1642	0
1654	6e-06
1666	2.4e-05
1678	2.1e-05
1690	2.1e-05
1702	1.8e-05
1714	1.2e-05
1726	5.1e-05
1738	4.5e-05
1750	3.9e-05
1762	2.7e-05
1774	2.7e-05
1786	1.5e-05
1798	1.5e-05
1810	1.8e-05
1822	2.7e-05
1834	3.6e-05
1846	1.5e-05
1858	2.4e-05
1870	4.2e-05
1882	2.7e-05
1894	4.2e-05
1906	2.7e-05
1918	2.4e-05
1930	4.2e-05
1942	9e-06
1954	2.7e-05
1966	3.9e-05
1978	3e-05
1990	4.2e-05
2002	1.8e-05
2014	6e-06
2026	4.5e-05
2038	1.5e-05
2050	3e-05
2062	3.6e-05
2074	4.2e-05
2086	3.3e-05
2098	5.1e-05
2110	2.4e-05
2122	4.8e-05
2134	4.2e-05
2146	6.3e-05
2158	9.9e-05
2170	0.00015
2182	0.000111
2194	6.9e-05
2206	6.6e-05
2218	6.9e-05
2230	2.7e-05
2242	4.5e-05
2254	3e-05
2266	6.3e-05
2278	6.9e-05
2290	3.9e-05
2302	3.9e-05
2314	2.4e-05
2326	3.3e-05
2338	6e-06
2350	3.6e-05
2362	8.1e-05
2374	9.9e-05
2386	0.000102
2398	6.6e-05
2410	8.7e-05
2422	8.7e-05
2434	3.3e-05
2446	4.8e-05
2458	4.8e-05
2470	4.8e-05
2482	7.5e-05
2494	8.7e-05
2506	8.7e-05
2518	1.8e-05
2530	4.8e-05
2542	3.3e-05
2554	6.6e-05
2566	6.6e-05
2578	6.9e-05
2590	3e-05
2602	9e-05
2614	8.7e-05
2626	0.000129
2638	0.000126
2650	0.000171
2662	0.00021
2674	0.000246
2686	0.000183
2698	0.000123
2710	0.000117
2722	9.9e-05
2734	6.6e-05
2746	6.6e-05
2758	7.5e-05
2770	0.000141
2782	0.000207
2794	0.000318
2806	0.000327
2818	0.000354
2830	0.000435
2842	0.000792
2854	0.002199
2866	0.005757
2878	0.006591
2890	0.003465
2902	0.002229
2914	0.003255
2926	0.006498
2938	0.016026
2950	0.03
2962	0.023946
2974	0.008133
2986	0.003258
2998	0.001305
3010	0.000318
3022	0.000168
3034	0.000177
3046	0.000165
3058	0.000138
3070	0.000111
3082	0.00012
3094	0.000129
3106	0.00012
3118	0.000102
3130	2.7e-05
3142	0
3154	3.9e-05
3166	1.8e-05
3178	7.2e-05
3190	2.1e-05
3202	2.1e-05
3214	4.5e-05
3226	3e-05
3238	3.3e-05
3250	5.1e-05
3262	3.6e-05
3274	4.8e-05
3286	7.2e-05
3298	8.7e-05
3310	7.2e-05
3322	0.000114
3334	9.3e-05
3346	7.2e-05
3358	6.6e-05
3370	2.7e-05
3382	5.7e-05
3394	2.4e-05
3406	6.3e-05
3418	4.8e-05
3430	5.4e-05
3442	0.000114
3454	6e-05
3466	5.7e-05
3478	9.3e-05
3490	8.4e-05
3502	5.7e-05
3514	6.6e-05
3526	1.5e-05
3538	0.000105
3550	8.7e-05
3562	9.9e-05
3574	7.5e-05
3586	0.000102
3598	7.5e-05
3610	8.4e-05
3622	0.000105
3634	0.000129
3646	0.000132
3658	0.000126
3670	0.000126
3682	0.000144
3694	0.000138
3706	0.000138
3718	0.000105
3730	0.000117
3742	0.000135
3754	0.000111
3766	8.7e-05
3778	0.000189
3790	0.000123
3802	0.000171
3814	0.000159
3826	0.000117
3838	0.000108
