Infrared Spectrum: 2-Chlorocyclohexanone
Formula: C 6 H 9 Cl O
CAS: 822-87-7
State: gas
Origin: EPA-IR VAPOR PHASE LIBRARY
1/CM	ABSORBANCE
549.8	0.0138343
559.445	0.0041343
569.09	0.0016943
578.734	0.0013043
588.379	0.0014343
598.024	0.0012943
607.669	0.0016743
617.313	0.0017143
626.958	0.0013243
636.603	0.0015043
646.248	0.0013943
655.893	0.0019943
665.537	0.0029743
675.182	0.0042843
684.827	0.0085243
694.472	0.0171543
704.116	0.0251243
713.761	0.0176543
723.406	0.0075843
733.051	0.0041243
742.695	0.0054843
752.34	0.0059943
761.985	0.0045043
771.63	0.0038043
781.275	0.0068343
790.919	0.0126843
800.564	0.0155743
810.209	0.0148143
819.854	0.0144343
829.498	0.0145543
839.143	0.0107943
848.788	0.0049243
858.433	0.0022743
868.078	0.0018143
877.722	0.0033143
887.367	0.0059543
897.012	0.0066643
906.657	0.0103843
916.301	0.0136743
925.946	0.0109343
935.591	0.0054343
945.236	0.0034943
954.88	0.0049443
964.525	0.0083543
974.17	0.0108343
983.815	0.0089543
993.46	0.0048743
1003.1	0.0033343
1012.75	0.0040543
1022.39	0.0044843
1032.04	0.0045943
1041.68	0.0065543
1051.33	0.0133943
1060.97	0.0179543
1070.62	0.0147843
1080.26	0.0076643
1089.91	0.0070243
1099.55	0.0128643
1109.2	0.0231143
1118.84	0.0261743
1128.49	0.0183843
1138.13	0.0069943
1147.78	0.0043243
1157.42	0.0032843
1167.07	0.0029543
1176.71	0.0044143
1186.36	0.0096643
1196	0.0137943
1205.64	0.0168943
1215.29	0.0211943
1224.93	0.0266743
1234.58	0.0237943
1244.22	0.0175443
1253.87	0.0132643
1263.51	0.0149543
1273.16	0.0096243
1282.8	0.0097243
1292.45	0.0142743
1302.09	0.0159743
1311.74	0.0163443
1321.38	0.0144643
1331.03	0.0131243
1340.67	0.0123443
1350.32	0.0088143
1359.96	0.0042343
1369.61	0.0022143
1379.25	0.0020343
1388.9	0.0022243
1398.54	0.0029243
1408.18	0.0051043
1417.83	0.0116343
1427.47	0.0220043
1437.12	0.0322543
1446.76	0.0295543
1456.41	0.0279443
1466.05	0.0187243
1475.7	0.0094443
1485.34	0.0036443
1494.99	0.0020743
1504.63	0.0014743
1514.28	0.0012843
1523.92	0.0011543
1533.57	0.0009196
1543.21	0.0007963
1552.86	0.0007811
1562.5	0.0007232
1572.15	0.0008327
1581.79	0.0009829
1591.44	0.0011143
1601.08	0.0011143
1610.73	0.0010643
1620.37	0.0009291
1630.01	0.0014043
1639.66	0.0022243
1649.3	0.0030843
1658.95	0.0035843
1668.59	0.0042043
1678.24	0.0053143
1687.88	0.0074543
1697.53	0.0125243
1707.17	0.0241443
1716.82	0.0581843
1726.46	0.122384
1736.11	0.176734
1745.75	0.170164
1755.4	0.113254
1765.04	0.0645443
1774.69	0.0311043
1784.33	0.0148443
1793.98	0.0081743
1803.62	0.0053443
1813.27	0.0037743
1822.91	0.0030643
1832.55	0.0024443
1842.2	0.0019143
1851.84	0.0016043
1861.49	0.0012843
1871.13	0.0011243
1880.78	0.0009626
1890.42	0.0009619
1900.07	0.0009021
1909.71	0.0009481
1919.36	0.0008626
1929	0.0008365
1938.65	0.0007906
1948.29	0.0007507
1957.94	0.0007636
1967.58	0.000625
1977.23	0.0005456
1986.87	0.0005213
1996.52	0.0005864
2006.16	0.000605
2015.81	0.0006429
2025.45	0.0004668
2035.1	0.0005712
2044.74	0.0005036
2054.38	0.0003984
2064.03	0.0004476
2073.67	0.0004978
2083.32	0.0003862
2092.96	0.0004811
2102.61	0.0004623
2112.25	0.0006602
2121.9	0.0005629
2131.54	0.0006616
2141.19	0.0006219
2150.83	0.0005441
2160.48	0.0006356
2170.12	0.0008432
2179.77	0.0008766
2189.41	0.0006531
2199.06	0.0005428
2208.7	0.0004711
2218.35	0.0004217
2227.99	0.0004703
2237.64	0.000552
2247.28	0.0006156
2256.92	0.0007512
2266.57	0.0006701
2276.21	0.0006585
2285.86	0.0006121
2295.5	0.0004831
2305.15	0.0004997
2314.79	0.0005339
2324.44	0.0006709
2334.08	0.000604
2343.73	0.0006728
2353.37	0.0006888
2363.02	0.0008735
2372.66	0.000709
2382.31	0.0005678
2391.95	0.0006436
2401.6	0.0007096
2411.24	0.0008248
2420.89	0.0006684
2430.53	0.0007004
2440.18	0.0005513
2449.82	0.0005968
2459.47	0.0005217
2469.11	0.0004274
2478.75	0.000344
2488.4	0.0005129
2498.04	0.0004379
2507.69	0.000595
2517.33	0.0005559
2526.98	0.0005225
2536.62	0.0004985
2546.27	0.0003932
2555.91	0.0004571
2565.56	0.0004492
2575.2	0.0005302
2584.85	0.000611
2594.49	0.0005505
2604.14	0.0005133
2613.78	0.0006207
2623.43	0.0006938
2633.07	0.0006714
2642.72	0.0008599
2652.36	0.0013143
2662.01	0.0015443
2671.65	0.0018643
2681.29	0.0016243
2690.94	0.0010743
2700.58	0.0007494
2710.23	0.0007354
2719.87	0.0006654
2729.52	0.0007451
2739.16	0.0008532
2748.81	0.0007277
2758.45	0.000907
2768.1	0.0012443
2777.74	0.0016243
2787.39	0.0020743
2797.03	0.0024443
2806.68	0.0025243
2816.32	0.0028943
2825.97	0.0035343
2835.61	0.0063543
2845.26	0.0107143
2854.9	0.0184343
2864.55	0.0318743
2874.19	0.0436943
2883.84	0.0398743
2893.48	0.0289643
2903.12	0.0256643
2912.77	0.0279943
2922.41	0.0349643
2932.06	0.0576343
2941.7	0.114374
2951.35	0.176854
2960.99	0.129684
2970.64	0.0706443
2980.28	0.0389943
2989.93	0.0251343
2999.57	0.0112543
3009.22	0.0058743
3018.86	0.0029943
3028.51	0.0022843
3038.15	0.0019743
3047.8	0.0016543
3057.44	0.0014243
3067.09	0.0011943
3076.73	0.0010087
3086.38	0.0009933
3096.02	0.000918
3105.67	0.0007029
3115.31	0.0005001
3124.95	0.000464
3134.6	0.0004255
3144.24	0.000243
3153.89	0.0003059
3163.53	0.000364
3173.18	0.0005282
3182.82	0.00039
3192.47	0.0004032
3202.11	0.0006143
3211.76	0.0006334
3221.4	0.0003599
3231.05	0.0004256
3240.69	0.0004077
3250.34	0.0002416
3259.98	0.0004173
3269.63	0.0002534
3279.27	0.0004354
3288.92	0.0004719
3298.56	0.0004367
3308.21	0.0004746
3317.85	7.791e-05
3327.49	0.00010909
3337.14	0.0004522
3346.78	0.0004822
3356.43	0.0002473
3366.07	0.0001872
3375.72	0.0006603
3385.36	0.0007453
3395.01	0.0007168
3404.65	0.0006019
3414.3	0.0008262
3423.94	0.0010843
3433.59	0.0017543
3443.23	0.0025743
3452.88	0.0035343
3462.52	0.0037043
3472.17	0.0027743
3481.81	0.0021543
3491.46	0.0016343
3501.1	0.0012743
3510.75	0.0008978
3520.39	0.0003798
3530.04	0.0003005
3539.68	0.0001917
3549.32	0.0004558
3558.97	0.0002357
3568.61	0.0003434
3578.26	0.00012687
3587.9	6.084e-05
3597.55	0.0001286
3607.19	0.0002628
3616.84	0.0002689
3626.48	0.0003343
3636.13	0.0003526
3645.77	0.0002023
3655.42	0.000267
3665.06	7.422e-05
3674.71	0.0001794
3684.35	0.0002426
3694	0.0003988
3703.64	0.0003403
3713.29	0.0002795
3722.93	0.0001611
3732.58	0.0002256
3742.22	0.0002115
3751.86	0.0004465
3761.51	0.0004409
3771.15	0.0003123
3780.8	0.0004208
3790.44	0.0003564
3800.09	0.0001805
3809.73	0.0004748
3819.38	0.000538
3829.02	0.0001484
3838.67	0.0003917
3848.31	0.0002351
3857.96	0.0003059
3867.6	0.0003264
3877.25	7.727e-05
3886.89	0.0003839
3896.54	0.0001757
3906.18	0.0004252
3915.83	0.0005772
3925.47	0.000965
3935.12	0.0007892
3944.76	0.0007194
3954.41	0.000713
3964.05	0.0006982
3973.69	0.0005872
3983.34	0.0004854
3992.98	0.000527
