Infrared Spectrum: CYCLOPENTANE, 1,2-DIMETHYL-TRANS
Formula: C7 H14
CAS: 822-50-4
State: SOLUTION (10% IN CCl4 FOR 3800-1333, 10% IN CS2 FOR 1333-400 CM^-^1)
Class: COBLENTZ III
Instrument: DOW KBr FOREPRISM-GRATING
Instrument parameters: BLAZED AT 3.5, 12.0, 20.0 MICRON, CHANGED AT 5.0, 7.5, 14.9 MICRON
Sampling: TRANSMISSION
Path length: 0.010, 0.010 CM
Resolution: 4
Origin: DOW CHEMICAL COMPANY
1/CM	TRANSMITTANCE
381.05	0.241
389.796	0.261
398.543	0.369
407.289	0.731
416.035	0.963
424.782	1.016
433.528	1.036
442.274	1.049
451.021	1.061
459.767	1.072
468.514	1.079
477.26	1.08
486.006	1.076
494.753	1.07
503.499	1.07
512.245	1.057
520.992	1.027
529.738	1.032
538.484	1.043
547.231	1.047
555.977	1.054
564.723	1.059
573.47	1.059
582.216	1.059
590.962	1.064
599.709	1.07
608.455	1.073
617.201	1.081
625.948	1.074
634.694	1.064
643.441	1.054
652.187	1.053
660.933	1.073
669.68	1.096
678.426	1.095
687.172	1.088
695.919	1.085
704.665	1.08
713.411	1.079
722.158	1.08
730.904	1.074
739.65	1.073
748.397	1.07
757.143	1.064
765.889	1.055
774.636	1.047
783.382	1.044
792.128	1.046
800.875	1.047
809.621	1.047
818.368	1.05
827.114	1.046
835.86	1.042
844.607	1.036
853.353	1.02
862.099	0.991
870.846	0.933
879.592	0.948
888.338	0.993
897.085	1.013
905.831	1.038
914.577	1.042
923.324	1.039
932.07	1.032
940.816	0.99
949.563	0.964
958.309	0.961
967.056	0.994
975.802	0.918
984.548	0.897
993.295	0.968
1002.04	0.926
1010.79	0.985
1019.53	1.006
1028.28	1.027
1037.03	1.036
1045.77	1.034
1054.52	1.034
1063.27	1.025
1072.01	1.001
1080.76	1.004
1089.5	1.04
1098.25	1.051
1107	1.053
1115.74	1.049
1124.49	1.04
1133.24	1.023
1141.98	0.978
1150.73	1.019
1159.48	1.028
1168.22	1.021
1176.97	1.009
1185.71	1
1194.46	0.997
1203.21	0.993
1211.95	0.993
1220.7	0.998
1229.45	0.995
1238.19	0.993
1246.94	0.991
1255.69	0.987
1264.43	0.978
1273.18	0.945
1281.92	0.873
1290.67	0.87
1299.42	0.916
1308.16	0.949
1316.91	0.967
1325.66	0.968
1334.4	0.945
1343.15	0.941
1351.89	0.903
1360.64	0.851
1369.39	0.647
1378.13	0.577
1386.88	0.904
1395.63	0.931
1404.37	0.934
1413.12	0.922
1421.87	0.892
1430.61	0.85
1439.36	0.73
1448.1	0.514
1456.85	0.223
1465.6	0.344
1474.34	0.632
1483.09	0.776
1491.84	0.835
1500.58	0.825
1509.33	0.786
1518.08	0.753
1526.82	0.723
1535.57	0.66
1544.31	0.551
1553.06	0.532
1561.81	0.615
1570.55	0.692
1579.3	0.719
1588.05	0.741
1596.79	0.814
1605.54	0.892
1614.29	0.946
1623.03	0.965
1631.78	0.976
1640.52	0.978
1649.27	0.979
1658.02	0.978
1666.76	0.976
1675.51	0.976
1684.26	0.974
1693	0.979
1701.75	0.982
1710.5	0.987
1719.24	0.989
1727.99	0.986
1736.73	0.983
1745.48	0.989
1754.23	1
1762.97	1.001
1771.72	1.001
1780.47	1.001
1789.21	0.998
1797.96	1
1806.71	1
1815.45	1.001
1824.2	0.998
1832.94	1.001
1841.69	0.998
1850.44	1
1859.18	0.998
1867.93	0.998
1876.68	1.001
1885.42	1.002
1894.17	1.002
1902.92	1.004
1911.66	1.006
1920.41	1.006
1929.15	1.005
1937.9	1.004
1946.65	1.005
1955.39	1.004
1964.14	1.004
1972.89	1.001
1981.63	1
1990.38	0.998
1999.12	0.998
2007.87	1
2016.62	1
2025.36	1
2034.11	1
2042.86	0.998
2051.6	1
2060.35	1
2069.1	1
2077.84	0.998
2086.59	0.998
2095.33	0.998
2104.08	0.997
2112.83	0.995
2121.57	0.995
2130.32	0.9935
2139.07	0.991
2147.81	0.9905
2156.56	0.9895
2165.31	0.987
2174.05	0.987
2182.8	0.985
2191.54	0.983
2200.29	0.9825
2209.04	0.983
2217.78	0.979
2226.53	0.9785
2235.28	0.976
2244.02	0.975
2252.77	0.974
2261.52	0.969
2270.26	0.962
2279.01	0.955
2287.75	0.947
2296.5	0.942
2305.25	0.945
2313.99	0.943
2322.74	0.939
2331.49	0.9405
2340.23	0.947
2348.98	0.949
2357.73	0.9485
2366.47	0.952
2375.22	0.956
2383.96	0.958
2392.71	0.9595
2401.46	0.9555
2410.2	0.955
2418.95	0.957
2427.7	0.953
2436.44	0.95
2445.19	0.949
2453.94	0.951
2462.68	0.955
2471.43	0.957
2480.17	0.957
2488.92	0.957
2497.67	0.957
2506.41	0.956
2515.16	0.9525
2523.91	0.947
2532.65	0.9425
2541.4	0.9375
2550.15	0.9345
2558.89	0.933
2567.64	0.93
2576.38	0.929
2585.13	0.927
2593.88	0.9265
2602.62	0.921
2611.37	0.901
2620.12	0.87
2628.86	0.8835
2637.61	0.9115
2646.35	0.92
2655.1	0.925
2663.85	0.9255
2672.59	0.9185
2681.34	0.908
2690.09	0.9005
2698.83	0.899
2707.58	0.896
2716.33	0.874
2725.07	0.826
2733.82	0.885
2742.56	0.881
2751.31	0.878
2760.06	0.8775
2768.8	0.8815
2777.55	0.879
2786.3	0.863
2795.04	0.8305
2803.79	0.7935
2812.54	0.7321
2821.28	0.6715
2830.03	0.6346
2838.77	0.5346
2847.52	0.3737
2856.27	0.102
2865.01	0.022
2873.76	0.026
2882.51	0.1412
2891.25	0.1436
2900	0.0961
2908.75	0.0665
2917.49	0.058
2926.24	0.027
2934.98	0.0255
2943.73	0.018
2952.48	0.016
2961.22	0.018
2969.97	0.104
2978.72	0.3049
2987.46	0.4704
2996.21	0.6485
3004.96	0.726
3013.7	0.7725
3022.45	0.815
3031.19	0.8445
3039.94	0.866
3048.69	0.879
3057.43	0.891
3066.18	0.8975
3074.93	0.9035
3083.67	0.907
3092.42	0.908
3101.17	0.91
3109.91	0.911
3118.66	0.91
3127.4	0.9075
3136.15	0.905
3144.9	0.903
3153.64	0.901
3162.39	0.9
3171.14	0.8995
3179.88	0.9005
3188.63	0.9085
3197.37	0.917
3206.12	0.928
3214.87	0.9345
3223.61	0.942
3232.36	0.947
3241.11	0.95
3249.85	0.955
3258.6	0.954
3267.35	0.952
3276.09	0.9525
3284.84	0.955
3293.58	0.957
3302.33	0.9595
3311.08	0.9605
3319.82	0.962
3328.57	0.964
3337.32	0.9675
3346.06	0.969
3354.81	0.971
3363.56	0.974
3372.3	0.975
3381.05	0.975
3389.79	0.972
3398.54	0.973
3407.29	0.974
3416.03	0.971
3424.78	0.9715
3433.53	0.97
3442.27	0.968
3451.02	0.969
3459.77	0.97
3468.51	0.968
3477.26	0.967
3486	0.97
3494.75	0.9715
3503.5	0.9715
3512.24	0.97
3520.99	0.971
3529.74	0.9705
3538.48	0.971
3547.23	0.97
3555.98	0.97
3564.72	0.969
3573.47	0.971
3582.21	0.97
3590.96	0.9715
3599.71	0.973
3608.45	0.971
3617.2	0.97
3625.95	0.967
3634.69	0.968
3643.44	0.9645
3652.19	0.9675
3660.93	0.969
3669.68	0.9675
3678.42	0.969
3687.17	0.966
3695.92	0.965
3704.66	0.964
3713.41	0.965
3722.16	0.9645
3730.9	0.963
3739.65	0.963
3748.4	0.963
3757.14	0.967
3765.89	0.968
3774.63	0.97
3783.38	0.968
3792.13	0.966
