Infrared Spectrum: Cyclohexylethanone
Formula: C 8 H 14 O
CAS: 823-76-7
State: gas
Instrument: HP-GC/MS/IRD
Origin: NIST Mass Spectrometry Data Center
1/CM	ABSORBANCE
550	0.0005096
562	0.0009744
574	0.0012376
586	0.0012656
598	0.00196
610	0.0016408
622	0.0005152
634	0.0003528
646	0.0004704
658	0.000392
670	7.28e-05
682	5.6e-05
694	0
706	4.48e-05
718	8.4e-05
730	6.16e-05
742	7.28e-05
754	8.4e-05
766	0.0001288
778	0.0001064
790	0.0001064
802	9.52e-05
814	0.000196
826	0.0004088
838	0.0004592
850	0.000532
862	0.0007896
874	0.0010528
886	0.001232
898	0.0009464
910	0.0007168
922	0.0007112
934	0.0008848
946	0.001596
958	0.002352
970	0.0018368
982	0.0011536
994	0.0010248
1006	0.0009408
1018	0.0010192
1030	0.001176
1042	0.0008568
1054	0.0005824
1066	0.0005096
1078	0.0006272
1090	0.0007168
1102	0.0009632
1114	0.0014616
1126	0.0022736
1138	0.0031136
1150	0.0048832
1162	0.0080248
1174	0.0080864
1186	0.005432
1198	0.0038808
1210	0.003556
1222	0.0035
1234	0.0038696
1246	0.0033096
1258	0.0017472
1270	0.001344
1282	0.0017864
1294	0.0027664
1306	0.00308
1318	0.0025872
1330	0.0028112
1342	0.0048776
1354	0.0085064
1366	0.0087752
1378	0.0049952
1390	0.0022848
1402	0.0017976
1414	0.0019264
1426	0.002436
1438	0.0040376
1450	0.0064232
1462	0.0052192
1474	0.0022904
1486	0.001092
1498	0.0006776
1510	0.0003808
1522	0.0004424
1534	0.0004984
1546	0.000476
1558	0.0004144
1570	0.0005376
1582	0.000504
1594	0.0004592
1606	0.0004648
1618	0.0004368
1630	0.0004592
1642	0.000504
1654	0.0006104
1666	0.00126
1678	0.0024808
1690	0.0046984
1702	0.0095256
1714	0.019432
1726	0.0243096
1738	0.0144032
1750	0.0054488
1762	0.0024864
1774	0.0012656
1786	0.0006552
1798	0.0003976
1810	0.0003192
1822	0.000252
1834	0.000252
1846	0.0001456
1858	0.00014
1870	8.96e-05
1882	0.0001176
1894	0.0001176
1906	0.0001288
1918	0.0001008
1930	0.0001288
1942	0.0001008
1954	0.0001176
1966	9.52e-05
1978	0.0001064
1990	9.52e-05
2002	8.96e-05
2014	5.6e-05
2026	7.84e-05
2038	7.84e-05
2050	7.28e-05
2062	4.48e-05
2074	4.48e-05
2086	8.4e-05
2098	5.6e-05
2110	6.16e-05
2122	8.4e-05
2134	7.28e-05
2146	8.4e-05
2158	0.0001008
2170	9.52e-05
2182	0.0001344
2194	0.0001344
2206	0.0001176
2218	0.0001064
2230	0.0001064
2242	0.0001008
2254	6.72e-05
2266	6.16e-05
2278	3.92e-05
2290	4.48e-05
2302	3.92e-05
2314	1.68e-05
2326	3.92e-05
2338	3.92e-05
2350	3.36e-05
2362	1.68e-05
2374	2.24e-05
2386	6.72e-05
2398	6.72e-05
2410	5.6e-05
2422	3.36e-05
2434	0
2446	3.36e-05
2458	3.36e-05
2470	6.16e-05
2482	0.0001064
2494	0.0001008
2506	6.16e-05
2518	9.52e-05
2530	9.52e-05
2542	0.000112
2554	8.96e-05
2566	0.0001008
2578	0.0001568
2590	0.0002016
2602	0.0002184
2614	0.0002408
2626	0.0002688
2638	0.000336
2650	0.0004592
2662	0.000644
2674	0.0006552
2686	0.0004984
2698	0.0004032
2710	0.000336
2722	0.0002464
2734	0.0002464
2746	0.0002968
2758	0.0003472
2770	0.0004312
2782	0.0006048
2794	0.0008288
2806	0.0010304
2818	0.0012992
2830	0.0019208
2842	0.0042224
2854	0.0122248
2866	0.0181328
2878	0.01288
2890	0.0080416
2902	0.0092568
2914	0.0164472
2926	0.0352184
2938	0.056
2950	0.0415856
2962	0.0140616
2974	0.0048272
2986	0.0025704
2998	0.0020496
3010	0.00196
3022	0.0015568
3034	0.001148
3046	0.001036
3058	0.00084
3070	0.0007
3082	0.0006104
3094	0.0005376
3106	0.0004368
3118	0.0003472
3130	0.0002968
3142	0.0002856
3154	0.0003024
3166	0.000252
3178	0.0002184
3190	0.0001736
3202	0.0001624
3214	0.0001736
3226	0.0001232
3238	0.0001512
3250	0.0001064
3262	0.0001008
3274	0.000112
3286	0.0001568
3298	9.52e-05
3310	0.0001176
3322	9.52e-05
3334	0.0001064
3346	0.0001064
3358	0.0001288
3370	0.0001792
3382	0.0002184
3394	0.0002744
3406	0.0003864
3418	0.0005152
3430	0.0006216
3442	0.0005488
3454	0.0003696
3466	0.0002352
3478	0.000196
3490	0.0002128
3502	0.0001008
3514	0.0001176
3526	6.16e-05
3538	0.00014
3550	0.0001064
3562	9.52e-05
3574	0.0001288
3586	1.68e-05
3598	7.84e-05
3610	3.36e-05
3622	0.0001064
3634	0.0001288
3646	7.28e-05
3658	0.0001344
3670	6.72e-05
3682	0.000196
3694	0.0001904
3706	0.0002016
3718	0.0001736
3730	0.0001232
3742	0.00014
3754	0.0001792
3766	0.000224
3778	0.0002688
3790	0.0002408
3802	0.000224
3814	0.0001792
3826	0.0002184
3838	0.0001792
