Infrared Spectrum: Bicyclo[3.2.1]-2-octene
Formula: C 8 H 12
CAS: 823-02-9
State: gas
Instrument: HP-GC/MS/IRD
Origin: NIST Mass Spectrometry Data Center
1/CM	ABSORBANCE
550	8.36e-05
562	6.6e-05
574	0.0001188
586	0.0001628
598	0.0002244
610	0.00033
622	0.0003212
634	0.0001672
646	0.0003036
658	0.001122
670	0.0027676
682	0.0050468
694	0.0033572
706	0.0017996
718	0.0015444
730	0.0024728
742	0.0017996
754	0.0009592
766	0.0004136
778	0.0004796
790	0.000528
802	0.0004884
814	0.0003652
826	0.000308
838	0.0002508
850	0.0003696
862	0.0010208
874	0.001276
886	0.000968
898	0.0007524
910	0.0006292
922	0.0005852
934	0.000396
946	0.0003388
958	0.0003036
970	0.000264
982	0.0001716
994	0.0001628
1006	0.0003036
1018	0.0007436
1030	0.0009592
1042	0.00077
1054	0.000638
1066	0.0004488
1078	0.0002464
1090	0.0001056
1102	8.36e-05
1114	0.0002112
1126	0.0002508
1138	0.0002948
1150	0.000308
1162	0.000418
1174	0.0004928
1186	0.0004884
1198	0.0004444
1210	0.0003168
1222	0.0003256
1234	0.0004048
1246	0.0004356
1258	0.000264
1270	0.0001848
1282	0.000374
1294	0.0006468
1306	0.0006864
1318	0.0004048
1330	0.0002112
1342	0.000176
1354	0.000176
1366	0.0002156
1378	0.0002816
1390	0.0003432
1402	0.0003608
1414	0.0005148
1426	0.001232
1438	0.002376
1450	0.0030404
1462	0.0019976
1474	0.0010868
1486	0.0004796
1498	0.0001936
1510	0.0001056
1522	7.48e-05
1534	2.64e-05
1546	4.4e-05
1558	5.28e-05
1570	7.48e-05
1582	9.24e-05
1594	8.8e-05
1606	0.0001584
1618	0.0004576
1630	0.0008272
1642	0.0009152
1654	0.0005808
1666	0.0002552
1678	0.0002024
1690	0.0001936
1702	0.0001408
1714	7.48e-05
1726	7.04e-05
1738	2.64e-05
1750	6.16e-05
1762	3.96e-05
1774	3.96e-05
1786	4.4e-05
1798	4.4e-05
1810	5.28e-05
1822	3.52e-05
1834	3.96e-05
1846	2.64e-05
1858	3.96e-05
1870	3.08e-05
1882	7.04e-05
1894	6.16e-05
1906	7.48e-05
1918	4.4e-05
1930	2.64e-05
1942	1.76e-05
1954	8.8e-06
1966	0
1978	8.8e-06
1990	2.2e-05
2002	2.64e-05
2014	2.2e-05
2026	2.2e-05
2038	0
2050	0
2062	4.4e-05
2074	2.2e-05
2086	3.96e-05
2098	6.6e-05
2110	5.72e-05
2122	4.4e-05
2134	3.96e-05
2146	7.48e-05
2158	5.72e-05
2170	4.84e-05
2182	5.28e-05
2194	2.64e-05
2206	5.28e-05
2218	9.24e-05
2230	6.16e-05
2242	7.04e-05
2254	5.28e-05
2266	6.16e-05
2278	4.84e-05
2290	4.84e-05
2302	7.04e-05
2314	5.72e-05
2326	7.92e-05
2338	6.6e-05
2350	7.48e-05
2362	3.52e-05
2374	4.84e-05
2386	2.64e-05
2398	4.4e-06
2410	4.4e-05
2422	4.4e-05
2434	3.96e-05
2446	4.84e-05
2458	3.52e-05
2470	3.52e-05
2482	6.16e-05
2494	3.08e-05
2506	4.84e-05
2518	6.6e-05
2530	5.72e-05
2542	7.04e-05
2554	7.92e-05
2566	9.24e-05
2578	0.0001144
2590	0.0001232
2602	0.000132
2614	0.000132
2626	0.0001716
2638	0.000198
2650	0.0001936
2662	0.00022
2674	0.000264
2686	0.0002464
2698	0.0002024
2710	0.000154
2722	0.0001364
2734	0.0002376
2746	0.0002772
2758	0.0003256
2770	0.0003168
2782	0.000352
2794	0.0005192
2806	0.0007216
2818	0.0013816
2830	0.0037224
2842	0.0060192
2854	0.0077132
2866	0.0103708
2878	0.013706
2890	0.0162008
2902	0.014476
2914	0.0155496
2926	0.0233332
2938	0.0378092
2950	0.044
2962	0.035618
2974	0.0151624
2986	0.0048708
2998	0.0021824
3010	0.002992
3022	0.0070576
3034	0.0101376
3046	0.0066924
3058	0.0024288
3070	0.0011968
3082	0.0006732
3094	0.0004444
3106	0.000286
3118	0.0001452
3130	0.00011
3142	0.0001056
3154	0.0001188
3166	0.0001144
3178	8.8e-05
3190	5.72e-05
3202	6.16e-05
3214	0.0001408
3226	0.0001408
3238	0.0001584
3250	0.00011
3262	0.0001364
3274	0.0001276
3286	9.68e-05
3298	0.000132
3310	7.92e-05
3322	0.00011
3334	0.0001628
3346	0.0001672
3358	0.0001452
3370	0.0001056
3382	0.000132
3394	7.92e-05
3406	5.28e-05
3418	9.24e-05
3430	8.36e-05
3442	8.36e-05
3454	3.52e-05
3466	3.08e-05
3478	3.96e-05
3490	4.4e-05
3502	1.76e-05
3514	3.08e-05
3526	4.4e-06
3538	8.36e-05
3550	3.52e-05
3562	0.0001408
3574	7.04e-05
3586	0.0001584
3598	6.16e-05
3610	5.72e-05
3622	7.04e-05
3634	6.16e-05
3646	0.0001496
3658	0.0001056
3670	0.0001584
3682	0.0001232
3694	0.00011
3706	0.000132
3718	0.000176
3730	0.000154
3742	0.0001188
3754	0.0001276
3766	8.36e-05
3778	0.0001584
3790	0.0001408
3802	0.000132
3814	0.000176
3826	0.0001936
3838	0.0001716
