Infrared Spectrum: BENZENAMINE, 4-CHLORO-N-HYDROXY-
Formula: C6 H6 Cl N O
CAS: 823-86-9
State: SOLID (1 mg / 500 mg KBr DISC)
Class: COBLENTZ III
Instrument: PERKIN-ELMER 621
Sampling: TRANSMISSION
Resolution: 4
Origin: SOUTHERN RESEARCH INSTITUTE
1/CM	TRANSMITTANCE
255.022	0.347
265.502	0.4199
275.983	0.471
286.463	0.5
296.943	0.513
307.424	0.611
317.904	0.76
328.385	0.759
338.865	0.759
349.345	0.768
359.826	0.775
370.306	0.764
380.786	0.766
391.267	0.768
401.747	0.76
412.227	0.721
422.708	0.73
433.188	0.711
443.668	0.674
454.149	0.6
464.629	0.422
475.11	0.4688
485.59	0.6919
496.07	0.729
506.551	0.713
517.031	0.678
527.511	0.5591
537.992	0.5916
548.472	0.76
558.952	0.752
569.433	0.735
579.913	0.725
590.393	0.711
600.874	0.694
611.354	0.662
621.835	0.603
632.315	0.501
642.795	0.5281
653.276	0.517
663.756	0.515
674.236	0.58
684.717	0.635
695.197	0.709
705.677	0.738
716.158	0.755
726.638	0.764
737.118	0.758
747.599	0.745
758.079	0.717
768.56	0.671
779.04	0.618
789.52	0.4901
800.001	0.5827
810.481	0.616
820.961	0.3831
831.442	0.202
841.922	0.2737
852.402	0.5879
862.883	0.632
873.363	0.611
883.843	0.588
894.324	0.538
904.804	0.4091
915.285	0.325
925.765	0.605
936.245	0.775
946.726	0.7628
957.206	0.759
967.686	0.741
978.167	0.686
988.647	0.615
999.127	0.5051
1009.61	0.428
1020.09	0.299
1030.57	0.467
1041.05	0.681
1051.53	0.763
1062.01	0.777
1072.49	0.746
1082.97	0.594
1093.45	0.304
1103.93	0.7427
1114.41	0.837
1124.89	0.839
1135.37	0.831
1145.85	0.813
1156.33	0.758
1166.81	0.7321
1177.29	0.768
1187.77	0.749
1198.25	0.704
1208.73	0.6331
1219.21	0.535
1229.7	0.743
1240.18	0.779
1250.66	0.79
1261.14	0.767
1271.62	0.734
1282.1	0.694
1292.58	0.741
1303.06	0.725
1313.54	0.73
1324.02	0.725
1334.5	0.73
1344.98	0.703
1355.46	0.695
1365.94	0.667
1376.42	0.602
1386.9	0.611
1397.38	0.63
1407.86	0.631
1418.34	0.584
1428.82	0.49
1439.3	0.439
1449.78	0.443
1460.26	0.307
1470.74	0.3289
1481.22	0.29
1491.7	0.185
1502.18	0.671
1512.66	0.824
1523.15	0.833
1533.63	0.827
1544.11	0.811
1554.59	0.788
1565.07	0.779
1575.55	0.7121
1586.03	0.679
1596.51	0.7
1606.99	0.775
1617.47	0.76
1627.95	0.751
1638.43	0.749
1648.91	0.742
1659.39	0.742
1669.87	0.768
1680.35	0.769
1690.83	0.769
1701.31	0.769
1711.79	0.767
1722.27	0.764
1732.75	0.763
1743.23	0.758
1753.71	0.751
1764.19	0.742
1774.67	0.737
1785.15	0.746
1795.63	0.743
1806.12	0.741
1816.6	0.738
1827.08	0.738
1837.56	0.734
1848.04	0.733
1858.52	0.728
1869	0.72
1879.48	0.708
1889.96	0.67
1900.44	0.695
1910.92	0.715
1921.4	0.715
1931.88	0.715
1942.36	0.713
1952.84	0.712
1963.32	0.709
1973.8	0.709
1984.28	0.709
1994.76	0.7
2005.24	0.694
2015.72	0.692
2026.2	0.691
2036.68	0.691
2047.16	0.686
2057.64	0.683
2068.12	0.683
2078.6	0.683
2089.08	0.683
2099.57	0.683
2110.05	0.679
2120.53	0.675
2131.01	0.675
2141.49	0.674
2151.97	0.674
2162.45	0.67
2172.93	0.666
2183.41	0.666
2193.89	0.662
2204.37	0.66
2214.85	0.6566
2225.33	0.6536
2235.81	0.6496
2246.29	0.648
2256.77	0.645
2267.25	0.6437
2277.73	0.635
2288.21	0.6402
2298.69	0.648
2309.17	0.65
2319.65	0.6499
2330.13	0.6479
2340.61	0.644
2351.09	0.6389
2361.57	0.633
2372.05	0.62
2382.53	0.616
2393.02	0.615
2403.5	0.615
2413.98	0.6149
2424.46	0.6101
2434.94	0.607
2445.42	0.603
2455.9	0.601
2466.38	0.598
2476.86	0.596
2487.34	0.593
2497.82	0.59
2508.3	0.588
2518.78	0.588
2529.26	0.586
2539.74	0.583
2550.22	0.5805
2560.7	0.579
2571.18	0.5765
2581.66	0.573
2592.14	0.5726
2602.62	0.571
2613.1	0.5686
2623.58	0.567
2634.06	0.5637
2644.54	0.56
2655.02	0.555
2665.5	0.551
2675.98	0.549
2686.47	0.546
2696.95	0.5429
2707.43	0.538
2717.91	0.535
2728.39	0.5279
2738.87	0.526
2749.35	0.522
2759.83	0.511
2770.31	0.507
2780.79	0.5012
2791.27	0.495
2801.75	0.4871
2812.23	0.484
2822.71	0.478
2833.19	0.4674
2843.67	0.4562
2854.15	0.4443
2864.63	0.4323
2875.11	0.4193
2885.59	0.418
2896.07	0.416
2906.55	0.4104
2917.03	0.41
2927.51	0.4206
2937.99	0.439
2948.47	0.4479
2958.95	0.453
2969.43	0.453
2979.92	0.4526
2990.4	0.449
3000.88	0.4383
3011.36	0.4277
3021.84	0.418
3032.32	0.409
3042.8	0.4028
3053.28	0.3916
3063.76	0.385
3074.24	0.3809
3084.72	0.3589
3095.2	0.3578
3105.68	0.356
3116.16	0.354
3126.64	0.349
3137.12	0.346
3147.6	0.3411
3158.08	0.3302
3168.56	0.3202
3179.04	0.3113
3189.52	0.2993
3200	0.2836
3210.48	0.2715
3220.96	0.2563
3231.44	0.2473
3241.92	0.2393
3252.4	0.228
3262.88	0.1981
3273.37	0.1456
3283.85	0.2409
3294.33	0.3115
3304.81	0.3306
3315.29	0.3545
3325.77	0.3669
3336.25	0.383
3346.73	0.4012
3357.21	0.4195
3367.69	0.4395
3378.17	0.454
3388.65	0.467
3399.13	0.4715
3409.61	0.4825
3420.09	0.4884
3430.57	0.4952
3441.05	0.5032
3451.53	0.5081
3462.01	0.512
3472.49	0.5171
3482.97	0.522
3493.45	0.524
3503.93	0.529
3514.41	0.53
3524.89	0.534
3535.37	0.535
3545.85	0.5389
3556.33	0.541
3566.82	0.542
3577.3	0.5428
3587.78	0.545
3598.26	0.545
3608.74	0.546
3619.22	0.5467
3629.7	0.549
3640.18	0.549
3650.66	0.5494
3661.14	0.55
3671.62	0.55
3682.1	0.549
3692.58	0.547
3703.06	0.5465
3713.54	0.545
3724.02	0.545
3734.5	0.543
3744.98	0.541
3755.46	0.539
3765.94	0.538
3776.42	0.534
3786.9	0.534
3797.38	0.532
3807.86	0.529
3818.34	0.528
3828.82	0.524
3839.3	0.524
3849.78	0.5241
3860.27	0.525
3870.75	0.52
3881.23	0.516
3891.71	0.516
3902.19	0.515
3912.67	0.513
3923.15	0.512
3933.63	0.5082
3944.11	0.508
3954.59	0.507
3965.07	0.505
3975.55	0.505
3986.03	0.505
3996.51	0.505
