Infrared Spectrum: Pyrimidine, 2-(methylthio)-,
Formula: C5 H6 N2 S
CAS: 823-09-6
State: LIQUID (NEAT)
Class: COBLENTZ III
Instrument: PERKIN-ELMER 21 (GRATING)
Instrument parameters: FILTER CHANGE ABOUT 1020 CM^-^1
Path length: CAPILLARY
Resolution: 2
Origin: SOUTHERN RESEARCH INSTITUTE
1/CM	TRANSMITTANCE
596	0.7442
605	0.7162
614	0.7121
623	0.757
632	0.783
641	0.8009
650	0.8139
659	0.8291
668	0.8388
677	0.8466
686	0.8522
695	0.8508
704	0.8347
713	0.8243
722	0.8567
731	0.8392
740	0.7916
749	0.5325
758	0.7814
767	0.598
776	0.8344
785	0.7861
794	0.6759
803	0.6987
812	0.8301
821	0.8856
830	0.8947
839	0.8992
848	0.9013
857	0.9013
866	0.9001
875	0.8978
884	0.898
893	0.8997
902	0.9007
911	0.8984
920	0.8918
929	0.8774
938	0.859
947	0.8425
956	0.8072
965	0.7857
974	0.8112
983	0.8722
992	0.8886
1001	0.8886
1010	0.8792
1019	0.8919
1028	0.8874
1037	0.8874
1046	0.8857
1055	0.8786
1064	0.875
1073	0.8794
1082	0.8676
1091	0.8759
1100	0.8824
1109	0.8818
1118	0.8799
1127	0.8689
1136	0.843
1145	0.8082
1154	0.7706
1163	0.7491
1172	0.5587
1181	0.3354
1190	0.6618
1199	0.4902
1208	0.3446
1217	0.8016
1226	0.8518
1235	0.852
1244	0.8334
1253	0.7922
1262	0.8791
1271	0.8823
1280	0.8764
1289	0.8702
1298	0.8536
1307	0.8101
1316	0.7783
1325	0.8473
1334	0.8421
1343	0.8313
1352	0.7885
1361	0.7114
1370	0.3712
1379	0.1
1388	0.2941
1397	0.6559
1406	0.7498
1415	0.7459
1424	0.7054
1433	0.6995
1442	0.8033
1451	0.838
1460	0.8564
1469	0.8691
1478	0.8731
1487	0.8725
1496	0.8639
1505	0.8403
1514	0.8223
1523	0.7571
1532	0.6316
1541	0.1938
1550	0.3671
1559	0.2676
1568	0.3912
1577	0.7638
1586	0.8426
1595	0.8513
1604	0.854
1613	0.8665
1622	0.8757
1631	0.879
1640	0.8813
1649	0.8885
1658	0.8965
1667	0.8968
1676	0.8922
1685	0.8907
1694	0.8901
1703	0.8903
1712	0.8909
1721	0.892
1730	0.895
1739	0.8984
1748	0.8971
1757	0.893
1766	0.889
1775	0.8878
1784	0.887
1793	0.8875
1802	0.8893
1811	0.891
1820	0.8917
1829	0.8946
1838	0.8959
1847	0.8961
1856	0.8955
1865	0.8944
1874	0.894
1883	0.8927
1892	0.8906
1901	0.8887
1910	0.8871
1919	0.8856
1928	0.8839
1937	0.8811
1946	0.876
1955	0.8724
1964	0.8754
1973	0.8845
1982	0.8859
1991	0.886
2000	0.8857
2009	0.8851
2018	0.8851
2027	0.8853
2036	0.8857
2045	0.8849
2054	0.8868
2063	0.8867
2072	0.886
2081	0.8852
2090	0.8843
2099	0.8832
2108	0.8834
2117	0.8827
2126	0.8797
2135	0.8767
2144	0.8836
2153	0.8848
2162	0.881
2171	0.8859
2180	0.8882
2189	0.888
2198	0.8869
2207	0.8862
2216	0.8845
2225	0.8824
2234	0.8797
2243	0.8772
2252	0.8776
2261	0.8845
2270	0.8842
2279	0.8836
2288	0.8834
2297	0.8846
2306	0.8866
2315	0.8884
2324	0.8886
2333	0.8892
2342	0.8894
2351	0.8888
2360	0.8881
2369	0.8863
2378	0.8828
2387	0.8758
2396	0.8794
2405	0.8857
2414	0.8869
2423	0.8874
2432	0.8879
2441	0.8875
2450	0.887
2459	0.8868
2468	0.8868
2477	0.887
2486	0.8873
2495	0.8874
2504	0.8871
2513	0.8869
2522	0.8878
2531	0.8887
2540	0.889
2549	0.8889
2558	0.889
2567	0.8892
2576	0.8894
2585	0.8894
2594	0.8888
2603	0.8884
2612	0.889
2621	0.8895
2630	0.8898
2639	0.8895
2648	0.8888
2657	0.8882
2666	0.8872
2675	0.8818
2684	0.876
2693	0.8794
2702	0.8811
2711	0.8785
2720	0.8833
2729	0.8881
2738	0.8903
2747	0.8908
2756	0.8903
2765	0.8886
2774	0.8867
2783	0.8847
2792	0.8817
2801	0.8785
2810	0.8759
2819	0.875
2828	0.8802
2837	0.8791
2846	0.874
2855	0.87
2864	0.8661
2873	0.8654
2882	0.8417
2891	0.8225
2900	0.8166
2909	0.8027
2918	0.7957
2927	0.8215
2936	0.8398
2945	0.8448
2954	0.8369
2963	0.8347
2972	0.8311
2981	0.8284
2990	0.8219
2999	0.8139
3008	0.8152
3017	0.8118
3026	0.8048
3035	0.8124
3044	0.8252
3053	0.8354
3062	0.8449
3071	0.8486
3080	0.8502
3089	0.8482
3098	0.846
3107	0.8436
3116	0.8434
3125	0.8511
3134	0.8498
3143	0.8492
3152	0.8562
3161	0.8634
3170	0.8698
3179	0.8699
3188	0.8648
3197	0.8618
3206	0.8738
3215	0.8731
3224	0.8713
3233	0.8694
3242	0.8657
3251	0.8666
3260	0.8605
3269	0.8608
3278	0.8646
3287	0.8662
3296	0.8667
3305	0.8637
3314	0.8619
3323	0.8613
3332	0.8612
3341	0.8602
3350	0.8613
3359	0.8658
3368	0.8651
3377	0.8619
3386	0.8573
3395	0.8545
3404	0.8493
3413	0.8511
3422	0.8533
3431	0.8523
3440	0.853
3449	0.8532
3458	0.8523
3467	0.8498
3476	0.8478
3485	0.8478
3494	0.8486
3503	0.8526
3512	0.8548
3521	0.8544
3530	0.8514
3539	0.8516
3548	0.8555
3557	0.856
3566	0.8566
3575	0.8552
3584	0.8535
3593	0.8555
3602	0.856
3611	0.8522
3620	0.855
3629	0.8593
3638	0.8586
3647	0.8594
3656	0.8635
3665	0.8654
3674	0.868
3683	0.869
3692	0.8692
3701	0.8612
3710	0.8568
3719	0.8578
3728	0.8582
3737	0.8584
3746	0.8563
3755	0.8537
3764	0.8566
3773	0.861
3782	0.8583
3791	0.8545
3800	0.8583
3809	0.8637
3818	0.8666
3827	0.8633
3836	0.8605
3845	0.8633
3854	0.8688
3863	0.8747
3872	0.8691
3881	0.8615
3890	0.8549
3899	0.853
