Infrared Spectrum: Phthalimide, N-(o-hydroxybenzyl)-,
Formula: C15 H11 N O3
CAS: 82356-36-3
State: SOLID (NUJOL MULL)
Melting point: 177 C
Class: COBLENTZ III
Instrument: PERKIN-ELMER 21 (GRATING)
Instrument parameters: FILTER AT ABOUT 10 MICRONS
Resolution: 2
Origin: ABBOTT LABORATORIES
1/CM	TRANSMITTANCE
665	0.6446
674	0.6189
683	0.6264
692	0.5924
701	0.6054
710	0.3923
719	0.4206
728	0.2783
737	0.5932
746	0.549
755	0.3209
764	0.632
773	0.7076
782	0.7374
791	0.7477
800	0.7215
809	0.6941
818	0.7356
827	0.711
836	0.6254
845	0.6102
854	0.6837
863	0.5764
872	0.7262
881	0.7108
890	0.6895
899	0.6855
908	0.6652
917	0.6075
926	0.5833
935	0.61
944	0.5363
953	0.2998
962	0.6253
971	0.598
980	0.663
989	0.6681
998	0.659
1007	0.6315
1016	0.6489
1025	0.6299
1034	0.6046
1043	0.6304
1052	0.6215
1061	0.597
1070	0.6154
1079	0.503
1088	0.4127
1097	0.5643
1106	0.4548
1115	0.5811
1124	0.629
1133	0.6097
1142	0.5731
1151	0.5196
1160	0.5068
1169	0.4279
1178	0.527
1187	0.5108
1196	0.4649
1205	0.5198
1214	0.4719
1223	0.3674
1232	0.4432
1241	0.5151
1250	0.499
1259	0.4117
1268	0.4777
1277	0.5038
1286	0.4205
1295	0.4485
1304	0.4311
1313	0.3902
1322	0.3319
1331	0.4156
1340	0.3486
1349	0.2727
1358	0.303
1367	0.1785
1376	0.1272
1385	0.2048
1394	0.251
1403	0.23
1412	0.4321
1421	0.5217
1430	0.2662
1439	0.2125
1448	0.1694
1457	0.0698
1466	0.0712
1475	0.2031
1484	0.4212
1493	0.5275
1502	0.504
1511	0.5298
1520	0.5995
1529	0.6471
1538	0.6466
1547	0.6389
1556	0.6253
1565	0.6089
1574	0.5927
1583	0.5581
1592	0.5101
1601	0.4689
1610	0.4534
1619	0.4852
1628	0.5453
1637	0.5241
1646	0.4975
1655	0.4599
1664	0.4166
1673	0.3513
1682	0.2826
1691	0.1987
1700	0.1664
1709	0.1817
1718	0.2173
1727	0.3372
1736	0.5156
1745	0.6294
1754	0.6238
1763	0.5018
1772	0.379
1781	0.5476
1790	0.7705
1799	0.7764
1808	0.7728
1817	0.7606
1826	0.7594
1835	0.7654
1844	0.7648
1853	0.7623
1862	0.7589
1871	0.7536
1880	0.7482
1889	0.7427
1898	0.7386
1907	0.7346
1916	0.7311
1925	0.725
1934	0.7188
1943	0.7174
1952	0.7167
1961	0.7148
1970	0.7107
1979	0.7083
1988	0.7079
1997	0.7074
2006	0.7017
2015	0.6958
2024	0.6943
2033	0.6934
2042	0.6926
2051	0.6921
2060	0.6893
2069	0.6847
2078	0.6792
2087	0.6755
2096	0.6722
2105	0.67
2114	0.6681
2123	0.6662
2132	0.6644
2141	0.6625
2150	0.6604
2159	0.6577
2168	0.6551
2177	0.6525
2186	0.6494
2195	0.6464
2204	0.6434
2213	0.6404
2222	0.6374
2231	0.6344
2240	0.6312
2249	0.6281
2258	0.6251
2267	0.6219
2276	0.6183
2285	0.6148
2294	0.6114
2303	0.6081
2312	0.6051
2321	0.6021
2330	0.5992
2339	0.5966
2348	0.594
2357	0.5915
2366	0.5898
2375	0.5899
2384	0.5898
2393	0.5897
2402	0.5895
2411	0.5892
2420	0.5887
2429	0.5882
2438	0.5876
2447	0.587
2456	0.5862
2465	0.5852
2474	0.5836
2483	0.5815
2492	0.5762
2501	0.5708
2510	0.5656
2519	0.5603
2528	0.5544
2537	0.5485
2546	0.5425
2555	0.5368
2564	0.5314
2573	0.526
2582	0.5216
2591	0.5179
2600	0.5143
2609	0.5107
2618	0.5072
2627	0.5037
2636	0.4991
2645	0.4943
2654	0.4895
2663	0.4856
2672	0.4817
2681	0.4781
2690	0.4767
2699	0.4759
2708	0.4759
2717	0.476
2726	0.4761
2735	0.4761
2744	0.4762
2753	0.476
2762	0.4749
2771	0.4716
2780	0.4627
2789	0.4489
2798	0.4289
2807	0.3995
2816	0.364
2825	0.3388
2834	0.2559
2843	0.1731
2852	0.091
2861	0.0339
2870	0.0257
2879	0.0229
2888	0.0219
2897	0.022
2906	0.0223
2915	0.0227
2924	0.0231
2933	0.0248
2942	0.0275
2951	0.0315
2960	0.0368
2969	0.0458
2978	0.057
2987	0.0661
2996	0.0935
3005	0.1317
3014	0.1697
3023	0.2074
3032	0.2448
3041	0.2938
3050	0.3211
3059	0.3364
3068	0.3514
3077	0.363
3086	0.3742
3095	0.3848
3104	0.3935
3113	0.3992
3122	0.401
3131	0.4014
3140	0.4007
3149	0.4
3158	0.3992
3167	0.3977
3176	0.3961
3185	0.3944
3194	0.3927
3203	0.3894
3212	0.386
3221	0.3825
3230	0.3781
3239	0.3737
3248	0.3694
3257	0.3651
3266	0.3601
3275	0.3549
3284	0.3497
3293	0.3446
3302	0.3391
3311	0.3318
3320	0.3245
3329	0.3172
3338	0.3088
3347	0.3002
3356	0.2936
3365	0.2909
3374	0.2892
3383	0.2879
3392	0.2877
3401	0.2898
3410	0.3178
3419	0.3466
3428	0.3754
3437	0.4039
3446	0.43
3455	0.443
3464	0.4532
3473	0.4614
3482	0.4686
3491	0.4759
3500	0.4854
3509	0.4946
3518	0.5014
3527	0.5053
3536	0.5055
3545	0.5059
3554	0.5048
3563	0.5034
3572	0.5013
3581	0.4988
3590	0.4963
3599	0.4938
3608	0.4912
3617	0.4885
3626	0.4857
3635	0.4831
3644	0.4804
3653	0.4779
3662	0.4759
3671	0.4739
3680	0.4719
3689	0.4699
3698	0.4679
3707	0.466
3716	0.4641
3725	0.4622
3734	0.4604
3743	0.4588
3752	0.457
3761	0.4552
3770	0.4535
3779	0.4518
3788	0.4501
3797	0.4484
3806	0.4467
3815	0.4453
3824	0.4441
3833	0.4429
3842	0.4418
3851	0.4407
3860	0.4396
3869	0.4383
3878	0.4371
3887	0.4358
3896	0.4346
3905	0.4333
3914	0.4321
3923	0.431
3932	0.4298
3941	0.4286
3950	0.4275
3959	0.4263
3968	0.4252
3977	0.424
3986	0.4229
3995	0.4219
