Infrared Spectrum: PHOSPHONYLDICHLORIDE, PHENYL-
Formula: C6 H5 Cl2 O P
CAS: 824-72-6
State: SOLUTION (10% IN CCl4 FOR 3800-1330, 10% IN CS2 FOR 1330-400 CM^-^1)
Class: COBLENTZ III
Instrument: BECKMAN IR-9 (GRATING)
Instrument parameters: ORDER CHANGES AT 670, 1200, 2000 CM^-^1
Sampling: TRANSMISSION
Path length: 0.011, 0.010 CM
Resolution: 4
Origin: DOW CHEMICAL COMPANY
1/CM	TRANSMITTANCE
400.227	0.312
408.755	0.301
417.282	0.319
425.81	0.466
434.337	0.662
442.865	0.743
451.393	0.79
459.92	0.815
468.448	0.816
476.975	0.828
485.503	0.864
494.031	0.884
502.558	0.903
511.086	0.895
519.613	0.857
528.141	0.71
536.669	0.1231
545.196	0
553.724	0.12
562.251	0.001
570.779	0
579.307	0.3531
587.834	0.762
596.362	0.878
604.889	0.915
613.417	0.904
621.945	0.91
630.472	0.943
639	0.945
647.527	0.912
656.055	0.873
664.583	0.902
673.11	0.782
681.638	0.5289
690.165	0.117
698.693	0.762
707.221	0.794
715.748	0.367
724.276	0.4141
732.803	0.849
741.331	0.577
749.859	0.345
758.386	0.876
766.914	0.928
775.442	0.962
783.969	0.959
792.497	0.965
801.024	0.974
809.552	0.979
818.08	0.981
826.607	0.978
835.135	0.958
843.662	0.886
852.19	0.824
860.718	0.819
869.245	0.853
877.773	0.892
886.3	0.924
894.828	0.961
903.356	0.979
911.883	0.981
920.411	0.971
928.938	0.942
937.466	0.966
945.994	0.977
954.521	0.971
963.049	0.958
971.576	0.938
980.104	0.942
988.632	0.945
997.159	0.727
1005.69	0.932
1014.21	0.938
1022.74	0.927
1031.27	0.939
1039.8	0.955
1048.32	0.958
1056.85	0.95
1065.38	0.883
1073.91	0.939
1082.44	0.935
1090.96	0.898
1099.49	0.7759
1108.02	0.068
1116.55	0.753
1125.07	0.806
1133.6	0.805
1142.13	0.7811
1150.66	0.906
1159.18	0.9
1167.71	0.926
1176.24	0.935
1184.77	0.859
1193.29	0.945
1201.82	0.962
1210.35	0.962
1218.88	0.961
1227.4	0.945
1235.93	0.911
1244.46	0.876
1252.99	0.6339
1261.51	0.296
1270.04	0.1899
1278.57	0
1287.1	0.0371
1295.63	0.727
1304.15	0.762
1312.68	0.872
1321.21	0.931
1329.74	0.945
1338.26	0.883
1346.79	0.975
1355.32	0.99
1363.85	0.989
1372.37	0.973
1380.9	0.954
1389.43	0.957
1397.96	0.979
1406.48	0.982
1415.01	0.974
1423.54	0.958
1432.07	0.853
1440.59	0.1708
1449.12	0.8731
1457.65	0.943
1466.18	0.957
1474.7	0.958
1483.23	0.7719
1491.76	0.894
1500.29	0.872
1508.82	0.831
1517.34	0.77
1525.87	0.721
1534.4	0.646
1542.93	0.561
1551.45	0.528
1559.98	0.576
1568.51	0.651
1577.04	0.67
1585.56	0.545
1594.09	0.768
1602.62	0.876
1611.15	0.918
1619.67	0.958
1628.2	0.978
1636.73	0.985
1645.26	0.987
1653.78	0.993
1662.31	0.991
1670.84	0.961
1679.37	0.978
1687.89	0.991
1696.42	1.001
1704.95	1.005
1713.48	1.004
1722.01	1.005
1730.53	1.012
1739.06	1.012
1747.59	1.013
1756.12	1.012
1764.64	0.991
1773.17	0.973
1781.7	0.994
1790.23	0.995
1798.75	0.986
1807.28	0.958
1815.81	0.906
1824.34	0.935
1832.86	0.947
1841.39	0.963
1849.92	0.973
1858.45	0.971
1866.97	0.977
1875.5	0.977
1884.03	0.971
1892.56	0.942
1901.09	0.938
1909.61	0.962
1918.14	0.946
1926.67	0.973
1935.2	0.979
1943.72	0.981
1952.25	0.977
1960.78	0.942
1969.31	0.942
1977.83	0.959
1986.36	0.943
1994.89	0.934
2003.42	0.971
2011.94	0.974
2020.47	0.977
2029	0.978
2037.53	0.979
2046.05	0.982
2054.58	0.978
2063.11	0.979
2071.64	0.981
2080.16	0.983
2088.69	0.986
2097.22	0.986
2105.75	0.986
2114.28	0.985
2122.8	0.985
2131.33	0.983
2139.86	0.979
2148.39	0.983
2156.91	0.985
2165.44	0.986
2173.97	0.983
2182.5	0.981
2191.02	0.981
2199.55	0.979
2208.08	0.9769
2216.61	0.959
2225.13	0.9651
2233.66	0.975
2242.19	0.975
2250.72	0.971
2259.24	0.969
2267.77	0.97
2276.3	0.962
2284.83	0.955
2293.35	0.958
2301.88	0.959
2310.41	0.957
2318.94	0.962
2327.47	0.9569
2335.99	0.958
2344.52	0.961
2353.05	0.961
2361.58	0.9711
2370.1	0.975
2378.63	0.977
2387.16	0.978
2395.69	0.978
2404.21	0.978
2412.74	0.979
2421.27	0.982
2429.8	0.982
2438.32	0.983
2446.85	0.985
2455.38	0.985
2463.91	0.985
2472.43	0.987
2480.96	0.986
2489.49	0.985
2498.02	0.985
2506.54	0.983
2515.07	0.982
2523.6	0.9809
2532.13	0.975
2540.66	0.974
2549.18	0.974
2557.71	0.975
2566.24	0.977
2574.77	0.978
2583.29	0.9769
2591.82	0.975
2600.35	0.981
2608.88	0.9819
2617.4	0.979
2625.93	0.9811
2634.46	0.986
2642.99	0.986
2651.51	0.987
2660.04	0.987
2668.57	0.987
2677.1	0.9859
2685.62	0.9779
2694.15	0.965
2702.68	0.9791
2711.21	0.983
2719.73	0.983
2728.26	0.986
2736.79	0.9871
2745.32	0.9909
2753.85	0.99
2762.37	0.993
2770.9	0.994
2779.43	0.993
2787.96	0.993
2796.48	0.994
2805.01	0.994
2813.54	0.993
2822.07	0.994
2830.59	0.9949
2839.12	0.995
2847.65	0.9949
2856.18	0.994
2864.7	0.9939
2873.23	0.993
2881.76	0.991
2890.29	0.9931
2898.81	0.994
2907.34	0.993
2915.87	0.991
2924.4	0.99
2932.92	0.9909
2941.45	0.99
2949.98	0.9888
2958.51	0.9847
2967.04	0.979
2975.56	0.982
2984.09	0.982
2992.62	0.9788
3001.15	0.9632
3009.67	0.9723
3018.2	0.9572
3026.73	0.9619
3035.26	0.9568
3043.78	0.9486
3052.31	0.917
3060.84	0.8157
3069.37	0.7966
3077.89	0.8922
3086.42	0.8945
3094.95	0.9342
3103.48	0.9593
3112	0.9692
3120.53	0.977
3129.06	0.979
3137.59	0.9789
3146.11	0.9749
3154.64	0.966
3163.17	0.977
3171.7	0.9789
3180.23	0.981
3188.75	0.986
3197.28	0.9872
3205.81	0.989
3214.34	0.9952
3222.86	0.995
3231.39	0.9952
3239.92	0.998
3248.45	1
3256.97	1
3265.5	1.0001
3274.03	1.001
3282.56	1.001
3291.08	1.001
3299.61	1.001
3308.14	1.001
3316.67	1.001
3325.19	1.001
3333.72	1.001
3342.25	1.001
3350.78	1.001
3359.31	1.001
3367.83	1.001
3376.36	1.001
3384.89	1.001
3393.42	1.001
3401.94	1
3410.47	1
3419	1
3427.53	1
3436.05	1
3444.58	1
3453.11	1
3461.64	1
3470.16	1
3478.69	1
3487.22	1
3495.75	1
3504.27	1
3512.8	1
3521.33	1
3529.86	0.998
3538.38	0.998
3546.91	1
3555.44	1
3563.97	1.001
3572.5	1.001
3581.02	1.001
3589.55	1.002
3598.08	1.004
3606.61	1.004
3615.13	1.002
3623.66	1.002
3632.19	1.001
3640.72	1
3649.24	0.9983
3657.77	1
3666.3	1
3674.83	1.002
3683.35	1.002
3691.88	1.001
3700.41	0.9997
3708.94	0.998
3717.46	1.001
3725.99	1.002
3734.52	1.004
3743.05	1.006
3751.57	1.008
3760.1	1.008
3768.63	1.005
3777.16	1.002
3785.69	1
