Infrared Spectrum: 2-Methoxyhydroquinone
Formula: C 7 H 8 O 3
CAS: 824-46-4
State: gas
Instrument: HP-GC/MS/IRD
Origin: NIST Mass Spectrometry Data Center
1/CM	ABSORBANCE
550	0.001794
562	0.0028314
574	0.002262
586	0.0015834
598	0.0023244
610	0.0030498
622	0.0019266
634	0.0006942
646	0.000156
658	1.56e-05
670	7.8e-06
682	0.000156
694	0.0003588
706	0.0008346
718	0.0018408
730	0.001872
742	0.0012948
754	0.0016848
766	0.0031434
778	0.0089232
790	0.019344
802	0.0167466
814	0.0100152
826	0.0097032
838	0.0078234
850	0.0045396
862	0.00234
874	0.001404
886	0.0011388
898	0.0013884
910	0.0021606
922	0.0042198
934	0.0110526
946	0.0122694
958	0.0045552
970	0.0021294
982	0.0022776
994	0.0027612
1006	0.0047424
1018	0.0100152
1030	0.0140556
1042	0.0110526
1054	0.0056238
1066	0.0036192
1078	0.0042978
1090	0.0084006
1102	0.0175656
1114	0.0185562
1126	0.0142272
1138	0.0304746
1150	0.0433602
1162	0.0344604
1174	0.0283998
1186	0.0309192
1198	0.0360282
1210	0.0357318
1222	0.0464802
1234	0.055107
1246	0.0331812
1258	0.0175344
1270	0.0188448
1282	0.0270738
1294	0.028041
1306	0.0184236
1318	0.008307
1330	0.005031
1342	0.0068406
1354	0.012753
1366	0.016809
1378	0.0116532
1390	0.0046176
1402	0.0033774
1414	0.0041418
1426	0.0075504
1438	0.0141024
1450	0.0168792
1462	0.017121
1474	0.0164892
1486	0.0180414
1498	0.0465114
1510	0.078
1522	0.0526188
1534	0.01443
1546	0.0042276
1558	0.0026988
1570	0.0028392
1582	0.0040872
1594	0.0060918
1606	0.0087438
1618	0.0106236
1630	0.0078312
1642	0.003744
1654	0.002574
1666	0.0028938
1678	0.002613
1690	0.0023322
1702	0.0017784
1714	0.0008346
1726	0.0004836
1738	0.0003666
1750	0.000351
1762	0.0003432
1774	0.0002262
1786	0.0001248
1798	0.0002262
1810	0.0004758
1822	0.0005694
1834	0.000546
1846	0.0005304
1858	0.0004758
1870	0.0003666
1882	0.0001872
1894	0.0001326
1906	0.0002106
1918	0.000273
1930	0.0002106
1942	0.000156
1954	0.0001326
1966	0.000156
1978	0.0001248
1990	0.000117
2002	0.000156
2014	0.0002496
2026	0.0003198
2038	0.0002964
2050	0.0003042
2062	0.00039
2074	0.0004524
2086	0.0003666
2098	0.000156
2110	2.34e-05
2122	3.12e-05
2134	7.8e-05
2146	9.36e-05
2158	9.36e-05
2170	0.0001014
2182	8.58e-05
2194	8.58e-05
2206	7.02e-05
2218	0.0001794
2230	0.000234
2242	0.0001404
2254	3.9e-05
2266	7.8e-06
2278	3.9e-05
2290	0.0001872
2302	0.0002964
2314	0.0002964
2326	0.0002808
2338	0.0002808
2350	0.0002418
2362	0.0002496
2374	0.0003354
2386	0.0003744
2398	0.0003978
2410	0.000429
2422	0.000468
2434	0.0004368
2446	0.0003666
2458	0.0004836
2470	0.0005382
2482	0.0005382
2494	0.0004758
2506	0.0003822
2518	0.0002964
2530	0.0001794
2542	0.000117
2554	0.0001248
2566	0.0001482
2578	0.0001404
2590	0.0001092
2602	0.000117
2614	0.0001248
2626	0.0001638
2638	0.0001404
2650	0.0001872
2662	0.0001248
2674	7.8e-05
2686	0
2698	2.34e-05
2710	2.34e-05
2722	7.8e-05
2734	0.0001404
2746	0.0001872
2758	0.0001872
2770	0.0002262
2782	0.000312
2794	0.0004992
2806	0.0008112
2818	0.001131
2830	0.001833
2842	0.0036894
2854	0.0047112
2866	0.0033852
2878	0.0023946
2890	0.002496
2902	0.0029796
2914	0.0037986
2926	0.0045162
2938	0.0063726
2950	0.0088608
2962	0.0085566
2974	0.005772
2986	0.0040326
2998	0.004914
3010	0.0064584
3022	0.0047502
3034	0.0041418
3046	0.0045318
3058	0.0032916
3070	0.002301
3082	0.0015678
3094	0.0009906
3106	0.0005772
3118	0.0004992
3130	0.0003588
3142	0.0003042
3154	0.0002106
3166	0.000117
3178	3.9e-05
3190	3.9e-05
3202	0.0001014
3214	0.0001014
3226	5.46e-05
3238	2.34e-05
3250	5.46e-05
3262	6.24e-05
3274	0.000117
3286	0.0001638
3298	0.0001248
3310	8.58e-05
3322	2.34e-05
3334	3.9e-05
3346	1.56e-05
3358	4.68e-05
3370	0.0001092
3382	0.000156
3394	0.0002496
3406	0.0002808
3418	0.0003276
3430	0.000273
3442	0.0003042
3454	0.000273
3466	0.0002808
3478	0.0002886
3490	0.0002574
3502	0.0002262
3514	0.0002496
3526	0.0002496
3538	0.0003666
3550	0.0005772
3562	0.0011622
3574	0.0033462
3586	0.0137124
3598	0.0239304
3610	0.01443
3622	0.0038766
3634	0.0034242
3646	0.010608
3658	0.0171522
3670	0.0083304
3682	0.001053
3694	0.0002886
3706	0.0001248
3718	4.68e-05
3730	1.56e-05
3742	2.34e-05
3754	7.02e-05
3766	0.0001248
3778	7.02e-05
3790	0.000156
3802	0.0002496
3814	0.0002574
3826	0.0002184
3838	0.0002652
