Infrared Spectrum: 2,5-Dimethylbenzyl chloride
Formula: C 9 H 11 Cl
CAS: 824-45-3
State: gas
Origin: EPA-IR VAPOR PHASE LIBRARY
1/CM	ABSORBANCE
549.9	0.001957
559.547	0.001877
569.193	0.001827
578.84	0.003107
588.486	0.007647
598.133	0.009627
607.779	0.005117
617.426	0.002227
627.072	0.0017467
636.719	0.0015119
646.365	0.0016011
656.012	0.002387
665.658	0.005027
675.305	0.010997
684.951	0.012817
694.598	0.006387
704.245	0.003477
713.891	0.005177
723.538	0.007747
733.184	0.012367
742.831	0.018087
752.477	0.012107
762.124	0.005637
771.77	0.004657
781.417	0.004617
791.063	0.005777
800.71	0.010997
810.356	0.016127
820.003	0.007777
829.649	0.002557
839.296	0.0016141
848.943	0.0014511
858.589	0.001397
868.236	0.0017312
877.882	0.002337
887.529	0.002057
897.175	0.001806
906.822	0.0017685
916.468	0.001927
926.115	0.002287
935.761	0.002317
945.408	0.0016511
955.054	0.0012732
964.701	0.0012185
974.347	0.0012767
983.994	0.0014479
993.64	0.0017037
1003.29	0.0018047
1012.93	0.0016672
1022.58	0.001606
1032.23	0.001917
1041.87	0.002157
1051.52	0.002127
1061.17	0.0017726
1070.81	0.0014714
1080.46	0.0012747
1090.11	0.0013398
1099.75	0.001663
1109.4	0.001997
1119.05	0.001877
1128.69	0.0016955
1138.34	0.002177
1147.99	0.004127
1157.63	0.004937
1167.28	0.002977
1176.92	0.001847
1186.57	0.0016721
1196.22	0.001867
1205.86	0.002537
1215.51	0.002777
1225.16	0.002817
1234.8	0.003567
1244.45	0.005877
1254.1	0.011437
1263.74	0.015857
1273.39	0.011257
1283.04	0.006637
1292.68	0.006587
1302.33	0.004227
1311.98	0.002127
1321.62	0.001857
1331.27	0.001847
1340.92	0.002067
1350.56	0.002177
1360.21	0.002267
1369.86	0.002547
1379.5	0.003427
1389.15	0.004007
1398.79	0.003377
1408.44	0.003457
1418.09	0.004057
1427.73	0.004747
1437.38	0.006047
1447.03	0.008287
1456.67	0.009277
1466.32	0.007667
1475.97	0.006687
1485.61	0.007697
1495.26	0.012477
1504.91	0.016157
1514.55	0.011217
1524.2	0.004707
1533.85	0.003217
1543.49	0.002867
1553.14	0.002637
1562.79	0.002587
1572.43	0.002347
1582.08	0.002167
1591.73	0.002037
1601.37	0.002417
1611.02	0.003277
1620.67	0.003027
1630.31	0.001877
1639.96	0.0013728
1649.6	0.0011938
1659.25	0.0010761
1668.9	0.0010049
1678.54	0.0009898
1688.19	0.0010652
1697.84	0.0010593
1707.48	0.001014
1717.13	0.0010169
1726.78	0.0010614
1736.42	0.0013658
1746.07	0.0017597
1755.72	0.001867
1765.36	0.0013641
1775.01	0.0010759
1784.66	0.0009396
1794.3	0.000946
1803.95	0.0009259
1813.6	0.0010625
1823.24	0.001158
1832.89	0.0011823
1842.54	0.0010433
1852.18	0.0010556
1861.83	0.0009966
1871.47	0.0012324
1881.12	0.0014652
1890.77	0.001837
1900.41	0.0015464
1910.06	0.000929
1919.71	0.00088482
1929.35	0.0007098
1939	0.0007796
1948.65	0.0007495
1958.29	0.000703
1967.94	0.0007167
1977.59	0.0007413
1987.23	0.0007218
1996.88	0.000701
2006.53	0.000685
2016.17	0.00072
2025.82	0.00068
2035.47	0.000613
2045.11	0.000626
2054.76	0.000632
2064.41	0.000706
2074.05	0.000725
2083.7	0.000694
2093.35	0.000704
2102.99	0.0007186
2112.64	0.000601
2122.28	0.00063
2131.93	0.000652
2141.58	0.00061
2151.22	0.000613
2160.87	0.000558
2170.52	0.000534
2180.16	0.000596
2189.81	0.000524
2199.46	0.000572
2209.1	0.000563
2218.75	0.000536
2228.4	0.000534
2238.04	0.000571
2247.69	0.000531
2257.34	0.000606
2266.98	0.000555
2276.63	0.000567
2286.28	0.000627
2295.92	0.000606
2305.57	0.000655
2315.22	0.000683
2324.86	0.000718
2334.51	0.0007266
2344.16	0.0007629
2353.8	0.0007816
2363.45	0.0007312
2373.09	0.000568
2382.74	0.00058
2392.39	0.000627
2402.03	0.000676
2411.68	0.000626
2421.33	0.000624
2430.97	0.00063
2440.62	0.000597
2450.27	0.000678
2459.91	0.000486
2469.56	0.000513
2479.21	0.000539
2488.85	0.000519
2498.5	0.000551
2508.15	0.000587
2517.79	0.000562
2527.44	0.000536
2537.09	0.000531
2546.73	0.000467
2556.38	0.000516
2566.03	0.000457
2575.67	0.000437
2585.32	0.000495
2594.96	0.000555
2604.61	0.000555
2614.26	0.000501
2623.9	0.00042
2633.55	0.000466
2643.2	0.000445
2652.84	0.000438
2662.49	0.000489
2672.14	0.000484
2681.78	0.00045
2691.43	0.000436
2701.08	0.000655
2710.72	0.0007679
2720.37	0.00079752
2730.02	0.0009926
2739.66	0.00138
2749.31	0.0014114
2758.96	0.000811275
2768.6	0.000529
2778.25	0.0007075
2787.9	0.000695
2797.54	0.0009378
2807.19	0.0009935
2816.84	0.0012354
2826.48	0.0016054
2836.13	0.002267
2845.77	0.003207
2855.42	0.004957
2865.07	0.008317
2874.71	0.011707
2884.36	0.012307
2894.01	0.011067
2903.65	0.010727
2913.3	0.012447
2922.95	0.018257
2932.59	0.023797
2942.24	0.020867
2951.89	0.014697
2961.53	0.013237
2971.18	0.014517
2980.83	0.016067
2990.47	0.014587
3000.12	0.014747
3009.77	0.017877
3019.41	0.019037
3029.06	0.016267
3038.71	0.013397
3048.35	0.013637
3058	0.012157
3067.64	0.007727
3077.29	0.004967
3086.94	0.003397
3096.58	0.002307
3106.23	0.0017769
3115.88	0.0017208
3125.52	0.0015308
3135.17	0.0011243
3144.82	0.000631
3154.46	0.000439
3164.11	0.000333
3173.76	0.000337
3183.4	0.000315
3193.05	0.000187
3202.7	0.000242
3212.34	0.000205
3221.99	0.00029
3231.64	0.000223
3241.28	0.000197
3250.93	0.000164
3260.58	0.000203
3270.22	0.000191
3279.87	0.000229
3289.52	0.000176
3299.16	0.000179
3308.81	0.000352
3318.45	0.000161
3328.1	0.000186
3337.75	0.000265
3347.39	0.000126
3357.04	0.000264
3366.69	0.000372
3376.33	8.6e-05
3385.98	0.000321
3395.63	0.000272
3405.27	0.000235
3414.92	0.00032
3424.57	0.000219
3434.21	0.000428
3443.86	0.000334
3453.51	0.000507
3463.15	0.000449
3472.8	0.00037
3482.45	0.000225
3492.09	0.000237
3501.74	0.000324
3511.39	0.000232
3521.03	0.000209
3530.68	0.000334
3540.33	0.000294
3549.97	0.000278
3559.62	0.000205
3569.26	0.000435
3578.91	0.00037
3588.56	0.000211
3598.2	0.000327
3607.85	0.00035
3617.5	0.000316
3627.14	0.000302
3636.79	0.000411
3646.44	0.000161
3656.08	0.000385
3665.73	0.000233
3675.38	0.000346
3685.02	0.000305
3694.67	0.000351
3704.32	0.000313
3713.96	0.000275
3723.61	0.000455
3733.26	0.000546
3742.9	0.000321
3752.55	0.0003
3762.2	0.000361
3771.84	0.000351
3781.49	0.000415
3791.13	0.000207
3800.78	0.000379
3810.43	0.000241
3820.07	0.000259
3829.72	0.000319
3839.37	0.000309
3849.01	0.000297
3858.66	0.000306
3868.31	0.000403
3877.95	0.000411
3887.6	0.000325
3897.25	0.000409
3906.89	0.00049
3916.54	0.000377
3926.19	0.000297
3935.83	0.00032
3945.48	0.000371
3955.13	0.000385
3964.77	0.000265
3974.42	0.000358
3984.07	0.000374
3993.71	0.000266
