Infrared Spectrum: 4-Ethyl-2,6,7-Trioxa-1-phosphabicyclo[2.2.1]octane
Formula: C 6 H 11 O 3 P
CAS: 824-11-3
State: gas
Origin: EPA-IR VAPOR PHASE LIBRARY
1/CM	ABSORBANCE
549.8	0.0005664
559.445	0.0001511
569.09	0.0005626
578.734	0.0005351
588.379	0.0004398
598.024	0.00075
607.669	0.0005746
617.313	0.0011569
626.958	0.00513
636.603	0.01429
646.248	0.01594
655.893	0.00545
665.537	0.00202
675.182	0.00162
684.827	0.00161
694.472	0.00276
704.116	0.00715
713.761	0.03107
723.406	0.11036
733.051	0.17425
742.695	0.08066
752.34	0.02337
761.985	0.02253
771.63	0.01773
781.275	0.01238
790.919	0.00774
800.564	0.00403
810.209	0.00244
819.854	0.00258
829.498	0.00396
839.143	0.0107
848.788	0.01502
858.433	0.0101
868.078	0.00293
877.722	0.00171
887.367	0.00142
897.012	0.00151
906.657	0.00172
916.301	0.00279
925.946	0.00535
935.591	0.01386
945.236	0.03186
954.88	0.04648
964.525	0.05081
974.17	0.04624
983.815	0.02971
993.46	0.01434
1003.1	0.00677
1012.75	0.005
1022.39	0.00654
1032.04	0.01688
1041.68	0.05034
1051.33	0.11355
1060.97	0.13402
1070.62	0.07038
1080.26	0.01987
1089.91	0.00757
1099.55	0.00544
1109.2	0.00361
1118.84	0.00418
1128.49	0.00647
1138.13	0.01203
1147.78	0.02053
1157.42	0.02365
1167.07	0.01737
1176.71	0.01397
1186.36	0.01096
1196	0.00568
1205.64	0.00169
1215.29	0.0008018
1224.93	0.0005973
1234.58	0.00031732
1244.22	0.0006771
1253.87	0.0007735
1263.51	0.0009131
1273.16	0.00138
1282.8	0.00143
1292.45	0.001139
1302.09	0.0010304
1311.74	0.0010739
1321.38	0.00148
1331.03	0.00228
1340.67	0.00272
1350.32	0.00225
1359.96	0.00144
1369.61	0.00195
1379.25	0.00444
1388.9	0.00571
1398.54	0.00399
1408.18	0.00162
1417.83	0.0011704
1427.47	0.00141
1437.12	0.00241
1446.76	0.00478
1456.41	0.00809
1466.05	0.00953
1475.7	0.00772
1485.34	0.00555
1494.99	0.00404
1504.63	0.00238
1514.28	0.0012018
1523.92	0.0010044
1533.57	0.0008896
1543.21	0.0008107
1552.86	0.0007992
1562.5	0.0007398
1572.15	0.0005426
1581.79	0.0005211
1591.44	0.0005285
1601.08	0.0004813
1610.73	0.0004138
1620.37	0.0004165
1630.01	0.0004453
1639.66	0.0004079
1649.3	0.0003691
1658.95	0.0004451
1668.59	0.0006197
1678.24	0.0006849
1687.88	0.0010823
1697.53	0.00142
1707.17	0.00145
1716.82	0.0010628
1726.46	0.0007091
1736.11	0.0005316
1745.75	0.0004893
1755.4	0.0003958
1765.04	0.00031167
1774.69	0.000395
1784.33	0.0005968
1793.98	0.0007423
1803.62	0.000633
1813.27	0.0007103
1822.91	0.0006664
1832.55	0.0005696
1842.2	0.0003791
1851.84	0.0003505
1861.49	0.0003916
1871.13	0.0004567
1880.78	0.000539
1890.42	0.0007155
1900.07	0.0009952
1909.71	0.0011737
1919.36	0.00141
1929	0.00155
1938.65	0.0015
1948.29	0.00122
1957.94	0.0007785
1967.58	0.00061
1977.23	0.0005673
1986.87	0.0005574
1996.52	0.0005389
2006.16	0.0006895
2015.81	0.0006986
2025.45	0.0007912
2035.1	0.00063
2044.74	0.0004336
2054.38	0.0003328
2064.03	0.0003743
2073.67	0.0004372
2083.32	0.0004127
2092.96	0.0006047
2102.61	0.0007409
2112.25	0.0008191
2121.9	0.0006567
2131.54	0.0005971
2141.19	0.0004995
2150.83	0.0003423
2160.48	0.0003986
2170.12	0.0004191
2179.77	0.0004695
2189.41	0.0004394
2199.06	0.000474
2208.7	0.0003907
2218.35	0.0004397
2227.99	0.0003679
2237.64	0.0003849
2247.28	0.0003754
2256.92	0.00028397
2266.57	0.000331
2276.21	0.0004156
2285.86	0.0004318
2295.5	0.0004641
2305.15	0.0003932
2314.79	0.0004304
2324.44	0.0004658
2334.08	0.0004702
2343.73	0.0004976
2353.37	0.0003832
2363.02	0.0003868
2372.66	0.0003457
2382.31	0.0003307
2391.95	0.0003616
2401.6	0.0003382
2411.24	0.0003444
2420.89	0.0004511
2430.53	0.0004512
2440.18	0.0003737
2449.82	0.0003638
2459.47	0.000382
2469.11	0.00026824
2478.75	0.00028297
2488.4	0.00027762
2498.04	0.0003554
2507.69	0.00027047
2517.33	0.0003307
2526.98	0.0004563
2536.62	0.0005199
2546.27	0.00052
2555.91	0.0004179
2565.56	0.0004122
2575.2	0.0003761
2584.85	0.0004446
2594.49	0.0003504
2604.14	0.0003938
2613.78	0.0004841
2623.43	0.0006191
2633.07	0.0005289
2642.72	0.0006701
2652.36	0.0009275
2662.01	0.0011616
2671.65	0.00143
2681.29	0.0015
2690.94	0.0012078
2700.58	0.0011886
2710.23	0.0011603
2719.87	0.0010287
2729.52	0.0009443
2739.16	0.0009169
2748.81	0.0011248
2758.45	0.00158
2768.1	0.00164
2777.74	0.00168
2787.39	0.00186
2797.03	0.00241
2806.68	0.00251
2816.32	0.00271
2825.97	0.00275
2835.61	0.0033
2845.26	0.00456
2854.9	0.00806
2864.55	0.01558
2874.19	0.03028
2883.84	0.04949
2893.48	0.04509
2903.12	0.02792
2912.77	0.02222
2922.41	0.03137
2932.06	0.04831
2941.7	0.05683
2951.35	0.04665
2960.99	0.03276
2970.64	0.02958
2980.28	0.0302
2989.93	0.0186
2999.57	0.0071
3009.22	0.00374
3018.86	0.0027
3028.51	0.00227
3038.15	0.00206
3047.8	0.0019
3057.44	0.00153
3067.09	0.00146
3076.73	0.0010775
3086.38	0.00088
3096.02	0.0007732
3105.67	0.0006514
3115.31	0.000728
3124.95	0.0008549
3134.6	0.0007538
3144.24	0.0006002
3153.89	0.0008627
3163.53	0.0008422
3173.18	0.0007532
3182.82	0.0007203
3192.47	0.0006724
3202.11	0.0006942
3211.76	0.0003281
3221.4	0.0003925
3231.05	0.0004068
3240.69	0.0004521
3250.34	0.0004898
3259.98	0.0003783
3269.63	0.00031285
3279.27	0.0005594
3288.92	0.0004971
3298.56	0.0005316
3308.21	0.00029806
3317.85	0.0003524
3327.49	0.0002012
3337.14	0.0005516
3346.78	0.0004409
3356.43	0.0004318
3366.07	0.0003602
3375.72	0.0003583
3385.36	0.0003838
3395.01	0.0003772
3404.65	0.00030922
3414.3	0.0004766
3423.94	0.000196
3433.59	0.0003573
3443.23	0.00023298
3452.88	0.0001883
3462.52	0.00029635
3472.17	0.00025823
3481.81	0.0002018
3491.46	0.0001423
3501.1	0.0002188
3510.75	0.0001724
3520.39	1.2e-05
3530.04	0
3539.68	0.0002113
3549.32	0.0002979
3558.97	0.000223211
3568.61	0.000129
3578.26	2.2e-05
3587.9	0.0003783
3597.55	0.0001281
3607.19	0.00024574
3616.84	0.0003534
3626.48	0.000437
3636.13	0.000223992
3645.77	0.0001816
3655.42	0.0001626
3665.06	8.3e-05
3674.71	0.0003251
3684.35	0.0002523
3694	0.00026283
3703.64	0.0002004
3713.29	0.0001904
3722.93	0.0003794
3732.58	0.0003551
3742.22	0.0001246
3751.86	0.0003556
3761.51	0.0005112
3771.15	0.0003235
3780.8	0.0004024
3790.44	0.00026505
3800.09	0.00029216
3809.73	0.00024604
3819.38	0.00031226
3829.02	0.00030376
3838.67	0.0005953
3848.31	0.00058
3857.96	0.0005655
3867.6	0.0005607
3877.25	0.0004138
3886.89	0.0006344
3896.54	0.0004447
3906.18	0.0006288
3915.83	0.0005393
3925.47	0.0005203
3935.12	0.0005657
3944.76	0.0005563
3954.41	0.0004847
3964.05	0.0004529
3973.69	0.000495
3983.34	0.0005841
3992.98	0.0007023
