Infrared Spectrum: 2,4-Dimethylbenzyl chloride
Formula: C 9 H 11 Cl
CAS: 824-55-5
State: gas
Origin: EPA-IR VAPOR PHASE LIBRARY
1/CM	ABSORBANCE
549.9	0.01826
559.547	0.01203
569.193	0.00585
578.84	0.00397
588.486	0.00394
598.133	0.00454
607.779	0.00529
617.426	0.00543
627.072	0.00596
636.719	0.0085
646.365	0.0169
656.012	0.04524
665.658	0.10358
675.305	0.13874
684.951	0.09426
694.598	0.04588
704.245	0.02249
713.891	0.04128
723.538	0.06046
733.184	0.08917
742.831	0.09522
752.477	0.06521
762.124	0.09435
771.77	0.08203
781.417	0.03628
791.063	0.02796
800.71	0.03995
810.356	0.06493
820.003	0.06309
829.649	0.0322
839.296	0.01264
848.943	0.00804
858.589	0.01097
868.236	0.01745
877.882	0.01533
887.529	0.00953
897.175	0.00749
906.822	0.00697
916.468	0.00685
926.115	0.01024
935.761	0.01944
945.408	0.01828
955.054	0.00791
964.701	0.0057
974.347	0.00544
983.994	0.00575
993.64	0.00669
1003.29	0.00874
1012.93	0.01034
1022.58	0.01036
1032.23	0.01128
1041.87	0.01233
1051.52	0.011
1061.17	0.00867
1070.81	0.00673
1080.46	0.00575
1090.11	0.00632
1099.75	0.0078
1109.4	0.00883
1119.05	0.00833
1128.69	0.00732
1138.34	0.00836
1147.99	0.01621
1157.63	0.02079
1167.28	0.01455
1176.92	0.00938
1186.57	0.00884
1196.22	0.00994
1205.86	0.01194
1215.51	0.01409
1225.16	0.01727
1234.8	0.02941
1244.45	0.04657
1254.1	0.08766
1263.74	0.13337
1273.39	0.08707
1283.04	0.03838
1292.68	0.02667
1302.33	0.01773
1311.98	0.01181
1321.62	0.00987
1331.27	0.01
1340.92	0.01074
1350.56	0.01108
1360.21	0.01184
1369.86	0.01454
1379.5	0.02196
1389.15	0.02493
1398.79	0.0214
1408.44	0.02376
1418.09	0.02863
1427.73	0.03391
1437.38	0.04307
1447.03	0.05862
1456.67	0.06673
1466.32	0.05605
1475.97	0.04583
1485.61	0.04361
1495.26	0.05131
1504.91	0.06495
1514.55	0.05265
1524.2	0.03032
1533.85	0.02562
1543.49	0.02359
1553.14	0.02329
1562.79	0.02368
1572.43	0.02354
1582.08	0.02309
1591.73	0.02375
1601.37	0.03389
1611.02	0.06289
1620.67	0.06087
1630.31	0.02376
1639.96	0.00981
1649.6	0.00653
1659.25	0.00532
1668.9	0.00481
1678.54	0.00506
1688.19	0.00503
1697.84	0.00445
1707.48	0.00411
1717.13	0.00416
1726.78	0.00541
1736.42	0.00714
1746.07	0.00773
1755.72	0.00717
1765.36	0.00562
1775.01	0.00402
1784.66	0.0035
1794.3	0.003229
1803.95	0.00336
1813.6	0.00405
1823.24	0.00382
1832.89	0.0029671
1842.54	0.0028161
1852.18	0.0032621
1861.83	0.00376
1871.47	0.00534
1881.12	0.00758
1890.77	0.00781
1900.41	0.00615
1910.06	0.00471
1919.71	0.00423
1929.35	0.00395
1939	0.0030847
1948.65	0.0022202
1958.29	0.001973
1967.94	0.002014
1977.59	0.002132
1987.23	0.002021
1996.88	0.001943
2006.53	0.001978
2016.17	0.001994
2025.82	0.001844
2035.47	0.001679
2045.11	0.001706
2054.76	0.00185
2064.41	0.001668
2074.05	0.001614
2083.7	0.001774
2093.35	0.0022861
2102.99	0.0023774
2112.64	0.001792
2122.28	0.001521
2131.93	0.001515
2141.58	0.001571
2151.22	0.001574
2160.87	0.001543
2170.52	0.001456
2180.16	0.0013
2189.81	0.00128
2199.46	0.00126
2209.1	0.00125
2218.75	0.001353
2228.4	0.001448
2238.04	0.001454
2247.69	0.001483
2257.34	0.001556
2266.98	0.001653
2276.63	0.001792
2286.28	0.001847
2295.92	0.001881
2305.57	0.002082
2315.22	0.0025934
2324.86	0.0028609
2334.51	0.0026481
2344.16	0.00238995
2353.8	0.002203
2363.45	0.002087
2373.09	0.002074
2382.74	0.002119
2392.39	0.0022907
2402.03	0.0025609
2411.68	0.0026162
2421.33	0.0024623
2430.97	0.002159
2440.62	0.002059
2450.27	0.002155
2459.91	0.002089
2469.56	0.002132
2479.21	0.002109
2488.85	0.002042
2498.5	0.001996
2508.15	0.001923
2517.79	0.001792
2527.44	0.001674
2537.09	0.001762
2546.73	0.001763
2556.38	0.001469
2566.03	0.00132
2575.67	0.00124
2585.32	0.00117
2594.96	0.00114
2604.61	0.00121
2614.26	0.001462
2623.9	0.001794
2633.55	0.001665
2643.2	0.00143
2652.84	0.001547
2662.49	0.001737
2672.14	0.001827
2681.78	0.001989
2691.43	0.00238681
2701.08	0.0031853
2710.72	0.00431
2720.37	0.00508
2730.02	0.00598
2739.66	0.00822
2749.31	0.00791
2758.96	0.00514
2768.6	0.00384
2778.25	0.00367
2787.9	0.00417
2797.54	0.00509
2807.19	0.00647
2816.84	0.00813
2826.48	0.01065
2836.13	0.01419
2845.77	0.02089
2855.42	0.03336
2865.07	0.05429
2874.71	0.0726
2884.36	0.07398
2894.01	0.06972
2903.65	0.07112
2913.3	0.08635
2922.95	0.12472
2932.59	0.15501
2942.24	0.13285
2951.89	0.09739
2961.53	0.09025
2971.18	0.10143
2980.83	0.11117
2990.47	0.10074
3000.12	0.10301
3009.77	0.12759
3019.41	0.13937
3029.06	0.11474
3038.71	0.09134
3048.35	0.08453
3058	0.07332
3067.64	0.05545
3077.29	0.03968
3086.94	0.02678
3096.58	0.01831
3106.23	0.01421
3115.88	0.01263
3125.52	0.01077
3135.17	0.00757
3144.82	0.00454
3154.46	0.0032214
3164.11	0.002122
3173.76	0.00147
3183.4	0.00105
3193.05	0.00064
3202.7	0.0003
3212.34	0.00032
3221.99	0.00025
3231.64	0.00015
3241.28	0.00015
3250.93	3e-05
3260.58	0.00015
3270.22	0.00016
3279.87	0.00027
3289.52	0.00015
3299.16	0.00033
3308.81	0.00027
3318.45	0.00027
3328.1	0.00034
3337.75	0.00015
3347.39	0.00016
3357.04	9e-05
3366.69	0.00013
3376.33	0.00016
3385.98	0.0002
3395.63	0.00031
3405.27	0.00039
3414.92	0.00043
3424.57	0.00035
3434.21	0.00049
3443.86	0.0006
3453.51	0.00069
3463.15	0.0004
3472.8	0.00041
3482.45	0.00069
3492.09	0.00041
3501.74	0.00034
3511.39	0.00039
3521.03	0.00042
3530.68	0.00038
3540.33	0.0005
3549.97	0.00054
3559.62	0.00075
3569.26	0.0008
3578.91	0.00065
3588.56	0.00059
3598.2	0.00054
3607.85	0.00053
3617.5	0.00043
3627.14	0.00047
3636.79	0.00056
3646.44	0.00058
3656.08	0.00057
3665.73	0.00063
3675.38	0.00065
3685.02	0.00069
3694.67	0.00078
3704.32	0.00084
3713.96	0.00091
3723.61	0.00104
3733.26	0.00128
3742.9	0.001374
3752.55	0.001322
3762.2	0.00128
3771.84	0.00122
3781.49	0.001
3791.13	0.00101
3800.78	0.00092
3810.43	0.00094
3820.07	0.00102
3829.72	0.00109
3839.37	0.00118
3849.01	0.00116
3858.66	0.00126
3868.31	0.00127
3877.95	0.001406
3887.6	0.001374
3897.25	0.001504
3906.89	0.001574
3916.54	0.001545
3926.19	0.00163
3935.83	0.001644
3945.48	0.001703
3955.13	0.001793
3964.77	0.002004
3974.42	0.002001
3984.07	0.002015
3993.71	0.001727
