Infrared Spectrum: 4-BENZAMIDOPYRAZOLO(3,4-d)PYRIMIDINE
Formula: C12 H9 N5 O
CAS: 82436-66-6
State: SOLID (0.8 mg / 650 mg KBr DISC)
Class: COBLENTZ III
Instrument: PERKIN-ELMER 21 (GRATING)
Instrument parameters: FILTER CHANGE ABOUT 1075 CM^-^1
Sampling: TRANSMISSION
Resolution: 2
Origin: SOUTHERN RESEARCH INSTITUTE
1/CM	TRANSMITTANCE
621.46	0.9244
630.496	0.9223
639.531	0.9058
648.567	0.8532
657.602	0.7465
666.638	0.5038
675.673	0.6784
684.709	0.4832
693.744	0.3904
702.78	0.5044
711.816	0.5562
720.851	0.8419
729.887	0.8916
738.922	0.8907
747.958	0.8825
756.993	0.8714
766.029	0.8479
775.064	0.8093
784.1	0.6562
793.136	0.6113
802.171	0.7869
811.207	0.7857
820.242	0.7809
829.278	0.7733
838.313	0.7619
847.349	0.745
856.385	0.7173
865.42	0.662
874.456	0.3846
883.491	0.4955
892.527	0.6489
901.562	0.5146
910.598	0.3623
919.633	0.6873
928.669	0.7932
937.705	0.8668
946.74	0.8606
955.776	0.863
964.811	0.8522
973.847	0.825
982.882	0.8179
991.918	0.7981
1000.95	0.7895
1009.99	0.7664
1019.02	0.7662
1028.06	0.7912
1037.1	0.7961
1046.13	0.7825
1055.17	0.7507
1064.2	0.69
1073.24	0.6092
1082.27	0.6817
1091.31	0.6431
1100.34	0.7112
1109.38	0.6899
1118.42	0.7136
1127.45	0.7052
1136.49	0.6759
1145.52	0.5762
1154.56	0.6162
1163.59	0.6079
1172.63	0.4285
1181.66	0.44
1190.7	0.5425
1199.74	0.4484
1208.77	0.3732
1217.81	0.5749
1226.84	0.6474
1235.88	0.5897
1244.91	0.3905
1253.95	0.2721
1262.98	0.3162
1272.02	0.1608
1281.06	0.3311
1290.09	0.4374
1299.13	0.471
1308.16	0.4917
1317.2	0.4793
1326.23	0.3142
1335.27	0.2833
1344.3	0.4799
1353.34	0.6736
1362.38	0.6622
1371.41	0.4767
1380.45	0.422
1389.48	0.5237
1398.52	0.7204
1407.55	0.7643
1416.59	0.7245
1425.62	0.6866
1434.66	0.4099
1443.7	0.3843
1452.73	0.6479
1461.77	0.5919
1470.8	0.4176
1479.84	0.3888
1488.87	0.39
1497.91	0.3327
1506.94	0.3228
1515.98	0.3891
1525.02	0.4181
1534.05	0.4844
1543.09	0.4075
1552.12	0.3219
1561.16	0.4876
1570.19	0.5047
1579.23	0.4876
1588.26	0.4223
1597.3	0.5069
1606.34	0.7006
1615.37	0.7497
1624.41	0.7602
1633.44	0.761
1642.48	0.7552
1651.51	0.7389
1660.55	0.696
1669.58	0.55
1678.62	0.4142
1687.66	0.2697
1696.69	0.327
1705.73	0.3032
1714.76	0.4013
1723.8	0.7948
1732.83	0.8464
1741.87	0.8613
1750.9	0.862
1759.94	0.8683
1768.98	0.8864
1778.01	0.895
1787.05	0.8944
1796.08	0.8981
1805.12	0.9044
1814.15	0.9035
1823.19	0.9085
1832.22	0.909
1841.26	0.9065
1850.3	0.901
1859.33	0.8933
1868.37	0.8885
1877.4	0.8834
1886.44	0.8803
1895.47	0.8796
1904.51	0.8811
1913.54	0.8812
1922.58	0.8793
1931.62	0.8773
1940.65	0.8753
1949.69	0.8728
1958.72	0.8715
1967.76	0.8702
1976.79	0.8689
1985.83	0.8681
1994.86	0.8676
2003.9	0.867
2012.94	0.8645
2021.97	0.8618
2031.01	0.8591
2040.04	0.8566
2049.08	0.8544
2058.11	0.8522
2067.15	0.8501
2076.18	0.8482
2085.22	0.8464
2094.26	0.8446
2103.29	0.8428
2112.33	0.841
2121.36	0.8392
2130.4	0.8374
2139.43	0.8356
2148.47	0.8336
2157.5	0.8315
2166.54	0.8293
2175.58	0.8267
2184.61	0.8242
2193.65	0.8216
2202.68	0.8195
2211.72	0.8178
2220.75	0.8163
2229.79	0.8144
2238.83	0.8123
2247.86	0.8102
2256.9	0.8075
2265.93	0.8043
2274.97	0.7998
2284	0.7944
2293.04	0.7883
2302.07	0.7834
2311.11	0.78
2320.15	0.779
2329.18	0.7798
2338.22	0.7815
2347.25	0.7832
2356.29	0.785
2365.32	0.7856
2374.36	0.7826
2383.39	0.7804
2392.43	0.7786
2401.47	0.7759
2410.5	0.7731
2419.54	0.7714
2428.57	0.7692
2437.61	0.7666
2446.64	0.7641
2455.68	0.7626
2464.71	0.7613
2473.75	0.7609
2482.79	0.76
2491.82	0.7588
2500.86	0.756
2509.89	0.7532
2518.93	0.749
2527.96	0.7447
2537	0.7404
2546.03	0.7361
2555.07	0.7317
2564.11	0.7295
2573.14	0.7272
2582.18	0.7251
2591.21	0.7236
2600.25	0.722
2609.28	0.7201
2618.32	0.7179
2627.35	0.7157
2636.39	0.7117
2645.43	0.708
2654.46	0.706
2663.5	0.7042
2672.53	0.6964
2681.57	0.695
2690.6	0.6956
2699.64	0.6969
2708.67	0.6952
2717.71	0.691
2726.75	0.6862
2735.78	0.6815
2744.82	0.6768
2753.85	0.6722
2762.89	0.6675
2771.92	0.662
2780.96	0.6565
2789.99	0.6511
2799.03	0.6446
2808.07	0.6375
2817.1	0.6304
2826.14	0.6239
2835.17	0.6181
2844.21	0.6122
2853.24	0.6063
2862.28	0.6005
2871.31	0.5947
2880.35	0.5905
2889.39	0.5875
2898.42	0.5858
2907.46	0.5842
2916.49	0.5832
2925.53	0.5851
2934.56	0.5906
2943.6	0.5963
2952.63	0.6022
2961.67	0.6056
2970.71	0.6061
2979.74	0.6053
2988.78	0.6026
2997.81	0.5976
3006.85	0.5899
3015.88	0.5834
3024.92	0.5895
3033.95	0.5996
3042.99	0.6112
3052.03	0.6217
3061.06	0.6276
3070.1	0.6224
3079.13	0.615
3088.17	0.6057
3097.2	0.5989
3106.24	0.5948
3115.27	0.5982
3124.31	0.6078
3133.35	0.6198
3142.38	0.6272
3151.42	0.6271
3160.45	0.6273
3169.49	0.6293
3178.52	0.6332
3187.56	0.6382
3196.59	0.6437
3205.63	0.6496
3214.67	0.6551
3223.7	0.6589
3232.74	0.6586
3241.77	0.6549
3250.81	0.6515
3259.84	0.6482
3268.88	0.646
3277.91	0.6444
3286.95	0.6421
3295.99	0.6389
3305.02	0.6345
3314.06	0.627
3323.09	0.6177
3332.13	0.6092
3341.16	0.6019
3350.2	0.5964
3359.23	0.5923
3368.27	0.5905
3377.31	0.5902
3386.34	0.5909
3395.38	0.5916
3404.41	0.5924
3413.45	0.594
3422.48	0.5961
3431.52	0.5994
3440.55	0.6033
3449.59	0.6077
3458.63	0.6125
3467.66	0.619
3476.7	0.6258
3485.73	0.6324
3494.77	0.6353
3503.8	0.6374
3512.84	0.643
3521.87	0.6514
3530.91	0.6598
3539.95	0.6657
3548.98	0.6692
3558.02	0.6715
3567.05	0.6732
3576.09	0.6765
3585.12	0.681
3594.16	0.6822
3603.19	0.6822
3612.23	0.682
3621.27	0.6822
3630.3	0.6823
3639.34	0.6823
3648.37	0.6821
3657.41	0.6816
3666.44	0.6788
3675.48	0.6753
3684.51	0.6755
3693.55	0.6756
3702.59	0.6755
3711.62	0.6763
3720.66	0.6773
3729.69	0.6784
3738.73	0.6792
3747.76	0.6793
3756.8	0.6777
3765.83	0.6754
3774.87	0.6732
3783.91	0.6723
3792.94	0.6712
3801.98	0.67
3811.01	0.6695
3820.05	0.6697
3829.08	0.6705
3838.12	0.6725
3847.15	0.6728
3856.19	0.6727
3865.23	0.6717
3874.26	0.6708
3883.3	0.6704
3892.33	0.6701
3901.37	0.6699
3910.4	0.6701
3919.44	0.6704
3928.47	0.6706
3937.51	0.6708
3946.55	0.671
3955.58	0.6713
3964.62	0.6716
3973.65	0.672
3982.69	0.6704
3991.72	0.6667
4000.76	0.6619
4009.79	0.6639
4018.83	0.6672
4027.87	0.6672
4036.9	0.6613
4045.94	0.6555
4054.97	0.6513
