Infrared Spectrum: 1-Phenylcyclopentene
Formula: C 11 H 12
CAS: 825-54-7
State: gas
Instrument: HP-GC/MS/IRD
Origin: NIST Mass Spectrometry Data Center
1/CM	ABSORBANCE
550	0.0008227
562	0.0002793
574	0.0001159
586	0.0001672
598	6.27e-05
610	0.0002299
622	0.0003325
634	0.000456
646	0.000779
658	0.0019893
670	0.0038057
682	0.0061446
694	0.0081909
706	0.0052763
718	0.0033611
730	0.0054169
742	0.0110048
754	0.0126179
766	0.0060857
778	0.0018943
790	0.000969
802	0.0011742
814	0.0015808
826	0.0014174
838	0.0011533
850	0.0008531
862	0.0004598
874	0.0004218
886	0.000608
898	0.0009348
910	0.0008208
922	0.0005757
934	0.0006669
946	0.0011495
958	0.0013433
970	0.0010203
982	0.0006745
994	0.0005947
1006	0.0006954
1018	0.0010659
1030	0.0025498
1042	0.0022591
1054	0.0012103
1066	0.0011704
1078	0.0009006
1090	0.0005092
1102	0.000323
1114	0.0003078
1126	0.0003154
1138	0.0003724
1150	0.0002907
1162	0.0003363
1174	0.0004313
1186	0.000551
1198	0.0005719
1210	0.0006954
1222	0.0006878
1234	0.0007904
1246	0.0007828
1258	0.0006859
1270	0.000798
1282	0.0012616
1294	0.0014972
1306	0.0012312
1318	0.0013756
1330	0.0016739
1342	0.0013566
1354	0.0004636
1366	0.00038
1378	0.0003268
1390	0.0002717
1402	0.0002926
1414	0.0004484
1426	0.0008474
1438	0.0017423
1450	0.0019513
1462	0.0011514
1474	0.0011761
1486	0.0038893
1498	0.0043263
1510	0.0011818
1522	0.0005054
1534	0.0003249
1546	0.0003781
1558	0.0005662
1570	0.0011096
1582	0.0018107
1594	0.0028139
1606	0.0019551
1618	0.0010583
1630	0.0012635
1642	0.0010488
1654	0.0006878
1666	0.0004617
1678	0.0003135
1690	0.0003135
1702	0.0003762
1714	0.000456
1726	0.0004617
1738	0.000418
1750	0.0002812
1762	0.0002299
1774	0.0003895
1786	0.0007334
1798	0.0006631
1810	0.0003743
1822	0.0002736
1834	0.0003173
1846	0.0005301
1858	0.0006099
1870	0.0006935
1882	0.0006232
1894	0.000323
1906	0.0002527
1918	0.0003724
1930	0.0006688
1942	0.0008607
1954	0.0007087
1966	0.0002508
1978	0.0001273
1990	0.0001102
2002	8.55e-05
2014	5.89e-05
2026	6.65e-05
2038	8.74e-05
2050	5.13e-05
2062	8.74e-05
2074	5.7e-05
2086	6.65e-05
2098	7.98e-05
2110	8.17e-05
2122	7.98e-05
2134	6.84e-05
2146	4.18e-05
2158	7.98e-05
2170	9.88e-05
2182	8.74e-05
2194	0.0001045
2206	6.08e-05
2218	7.98e-05
2230	8.93e-05
2242	0.0001292
2254	9.5e-05
2266	0.000133
2278	0.0001045
2290	6.65e-05
2302	0.000133
2314	0.0002166
2326	0.0002128
2338	0.0001919
2350	0.0001786
2362	0.0001197
2374	9.5e-05
2386	8.55e-05
2398	8.36e-05
2410	9.88e-05
2422	9.31e-05
2434	8.74e-05
2446	9.12e-05
2458	6.46e-05
2470	0.0001178
2482	0.0001045
2494	8.93e-05
2506	5.89e-05
2518	6.27e-05
2530	9.12e-05
2542	3.04e-05
2554	4.75e-05
2566	0.000114
2578	0.0001919
2590	0.000171
2602	0.000133
2614	0.0001064
2626	0.000114
2638	0.0001083
2650	4.56e-05
2662	5.7e-05
2674	8.74e-05
2686	0.000114
2698	0.0001045
2710	0.0001387
2722	0.0001995
2734	0.000266
2746	0.0002907
2758	0.0003458
2770	0.0004655
2782	0.0005377
2794	0.0007486
2806	0.0010013
2818	0.0016853
2830	0.0029792
2842	0.0065854
2854	0.01349
2866	0.0124469
2878	0.009044
2890	0.0086184
2902	0.0110808
2914	0.0130948
2926	0.0140866
2938	0.0152912
2950	0.017499
2962	0.0187112
2974	0.010868
2986	0.0045752
2998	0.0028272
3010	0.0029906
3022	0.0048355
3034	0.0074461
3046	0.0082365
3058	0.0102049
3070	0.0115254
3082	0.0077216
3094	0.0051965
3106	0.0027721
3118	0.0011837
3130	0.0005966
3142	0.0004674
3154	0.0003762
3166	0.0003002
3178	0.00019
3190	0.0001368
3202	0.0001235
3214	9.88e-05
3226	0.0001121
3238	0.0001102
3250	8.36e-05
3262	5.13e-05
3274	5.7e-05
3286	2.09e-05
3298	8.55e-05
3310	3.04e-05
3322	4.37e-05
3334	8.55e-05
3346	7.22e-05
3358	5.32e-05
3370	1.9e-05
3382	5.7e-05
3394	6.84e-05
3406	5.7e-05
3418	4.75e-05
3430	8.93e-05
3442	0.0001102
3454	0.0001026
3466	7.79e-05
3478	8.93e-05
3490	9.69e-05
3502	7.98e-05
3514	7.22e-05
3526	3.23e-05
3538	6.46e-05
3550	5.51e-05
3562	0.0001197
3574	0.0001748
3586	0.0001045
3598	8.93e-05
3610	0.0001007
3622	0.0001292
3634	0.0001672
3646	0.0001653
3658	0.0002109
3670	0.0001805
3682	0.0001292
3694	0.0002413
3706	0.0001995
3718	0.0001824
3730	0.0003059
3742	0.0002318
3754	0.0002508
3766	0.0001843
3778	0.0002071
3790	0.0002356
3802	0.0002052
3814	0.0002166
3826	0.0002565
3838	0.0002185
