Infrared Spectrum: 4-(Trifluoromethyl)thiophenol
Formula: C 7 H 5 F 3 S
CAS: 825-83-2
State: gas
Origin: EPA-IR VAPOR PHASE LIBRARY
1/CM	ABSORBANCE
549.8	0.0022589
559.445	0.0022323
569.09	0.0017787
578.734	0.00357
588.379	0.00338
598.024	0.00468
607.669	0.0020781
617.313	0.0021092
626.958	0.000896
636.603	0.00281
646.248	0.0018223
655.893	0.00258
665.537	0.0013042
675.182	0.00139941
684.827	0.0018876
694.472	0.00306
704.116	0.00487
713.761	0.00366
723.406	0.00311
733.051	0.00284
742.695	0.00252
752.34	0.0024
761.985	0.0020662
771.63	0.00359
781.275	0.00502
790.919	0.00538
800.564	0.00628
810.209	0.00986
819.854	0.01186
829.498	0.01453
839.143	0.01159
848.788	0.00705
858.433	0.00402
868.078	0.00289
877.722	0.0012541
887.367	0.0021433
897.012	0.00246
906.657	0.00267
916.301	0.00301
925.946	0.0022344
935.591	0.00238
945.236	0.00308
954.88	0.0015223
964.525	0.0019027
974.17	0.0014571
983.815	0.0016452
993.46	0.0022362
1003.1	0.00418
1012.75	0.02215
1022.39	0.01779
1032.04	0.00439
1041.68	0.00296
1051.33	0.00775
1060.97	0.03742
1070.62	0.04682
1080.26	0.0136
1089.91	0.01335
1099.55	0.04253
1109.2	0.05077
1118.84	0.03297
1128.49	0.04562
1138.13	0.07556
1147.78	0.10645
1157.42	0.09649
1167.07	0.08937
1176.71	0.06441
1186.36	0.0372
1196	0.01892
1205.64	0.01023
1215.29	0.01138
1224.93	0.00767
1234.58	0.00665
1244.22	0.00492
1253.87	0.00493
1263.51	0.00846
1273.16	0.01095
1282.8	0.01174
1292.45	0.01168
1302.09	0.01925
1311.74	0.0635
1321.38	0.17307
1331.03	0.14037
1340.67	0.03632
1350.32	0.01293
1359.96	0.00722
1369.61	0.00531
1379.25	0.00602
1388.9	0.00737
1398.54	0.00907
1408.18	0.00893
1417.83	0.00682
1427.47	0.00372
1437.12	0.00277
1446.76	0.0020834
1456.41	0.0018326
1466.05	0.0017423
1475.7	0.0020037
1485.34	0.00239
1494.99	0.00425
1504.63	0.00384
1514.28	0.0019379
1523.92	0.001758
1533.57	0.0018253
1543.21	0.0019797
1552.86	0.00285
1562.5	0.00408
1572.15	0.00448
1581.79	0.00409
1591.44	0.00577
1601.08	0.01486
1610.73	0.02576
1620.37	0.01347
1630.01	0.00388
1639.66	0.00297
1649.3	0.00285
1658.95	0.00283
1668.59	0.0022741
1678.24	0.0020599
1687.88	0.0021298
1697.53	0.0021692
1707.17	0.0018157
1716.82	0.0016913
1726.46	0.0018504
1736.11	0.0022213
1745.75	0.0021301
1755.4	0.0020439
1765.04	0.00247
1774.69	0.00246
1784.33	0.00256
1793.98	0.0022717
1803.62	0.0017982
1813.27	0.0017028
1822.91	0.0022016
1832.55	0.0020249
1842.2	0.0015951
1851.84	0.0014465
1861.49	0.0016084
1871.13	0.0018862
1880.78	0.0020575
1890.42	0.00264
1900.07	0.00265
1909.71	0.00297
1919.36	0.00247
1929	0.0021203
1938.65	0.0018671
1948.29	0.0014527
1957.94	0.0018392
1967.58	0.0016849
1977.23	0.0014622
1986.87	0.0017049
1996.52	0.00140738
2006.16	0.0015431
2015.81	0.0014245
2025.45	0.001587
2035.1	0.0012543
2044.74	0.0015142
2054.38	0.00135876
2064.03	0.0015016
2073.67	0.0016128
2083.32	0.00139313
2092.96	0.0019401
2102.61	0.0019583
2112.25	0.0014911
2121.9	0.0015838
2131.54	0.0018033
2141.19	0.00131423
2150.83	0.0014726
2160.48	0.0015295
2170.12	0.001685
2179.77	0.0016524
2189.41	0.0015751
2199.06	0.0016982
2208.7	0.0016133
2218.35	0.0014737
2227.99	0.0015438
2237.64	0.0014952
2247.28	0.0017805
2256.92	0.0018281
2266.57	0.0018261
2276.21	0.0017662
2285.86	0.0020377
2295.5	0.0022287
2305.15	0.0018988
2314.79	0.0017264
2324.44	0.0016713
2334.08	0.0017327
2343.73	0.0018932
2353.37	0.0018123
2363.02	0.0015583
2372.66	0.0015571
2382.31	0.0015347
2391.95	0.0017937
2401.6	0.0016538
2411.24	0.0018499
2420.89	0.00183
2430.53	0.0017585
2440.18	0.0015636
2449.82	0.0012895
2459.47	0.0016654
2469.11	0.0017089
2478.75	0.0014322
2488.4	0.0018231
2498.04	0.0015151
2507.69	0.0016228
2517.33	0.0016089
2526.98	0.0015621
2536.62	0.00134829
2546.27	0.0019338
2555.91	0.0015028
2565.56	0.0016002
2575.2	0.00140589
2584.85	0.0017747
2594.49	0.0021148
2604.14	0.0021294
2613.78	0.0018964
2623.43	0.0016273
2633.07	0.0016765
2642.72	0.0017089
2652.36	0.0018695
2662.01	0.0016355
2671.65	0.00133607
2681.29	0.0019934
2690.94	0.00140387
2700.58	0.0012903
2710.23	0.001191
2719.87	0.00138568
2729.52	0.001178
2739.16	0.0014526
2748.81	0.0013824
2758.45	0.00139825
2768.1	0.0012486
2777.74	0.00131589
2787.39	0.001132
2797.03	0.0016647
2806.68	0.000769
2816.32	0.0017698
2825.97	0.0018085
2835.61	0.001115
2845.26	0.0015243
2854.9	0.001556
2864.55	0.0017203
2874.19	0.0012551
2883.84	0.0015337
2893.48	0.0015803
2903.12	0.0016101
2912.77	0.0018259
2922.41	0.0022937
2932.06	0.0021717
2941.7	0.0022147
2951.35	0.001921
2960.99	0.00134876
2970.64	0.0012497
2980.28	0.0012491
2989.93	0.001101
2999.57	0.001129
3009.22	0.0015892
3018.86	0.0019495
3028.51	0.001078
3038.15	0.00238
3047.8	0.0021578
3057.44	0.0020311
3067.09	0.0016515
3076.73	0.0025
3086.38	0.00307
3096.02	0.002309
3105.67	0.00271
3115.31	0.0021251
3124.95	0.0017736
3134.6	0.0015343
3144.24	0.0017722
3153.89	0.001032
3163.53	0.000832
3173.18	0.0016804
3182.82	0.0014621
3192.47	0.002134
3202.11	0.000716
3211.76	0.001131
3221.4	0.0014829
3231.05	0.0018117
3240.69	0.0015661
3250.34	0.00135015
3259.98	0.0014673
3269.63	0.001113
3279.27	0.000901
3288.92	0.0016968
3298.56	0.001
3308.21	0.001925
3317.85	0.0018302
3327.49	0.000484
3337.14	0.001089
3346.78	0.0015061
3356.43	0.0016938
3366.07	0.001014
3375.72	0.000511
3385.36	0.00238
3395.01	0.000692
3404.65	0.002155
3414.3	0.00139017
3423.94	0.0012878
3433.59	0.000775
3443.23	0.000903
3452.88	0.0015261
3462.52	0.001557
3472.17	0.0026
3481.81	0.0013021
3491.46	0.00255
3501.1	0.0017175
3510.75	0.001486
3520.39	0.0019304
3530.04	0.001067
3539.68	0.000845
3549.32	0.001075
3558.97	0.001985
3568.61	0.000773
3578.26	0.0017064
3587.9	0.0016203
3597.55	0.001206
3607.19	0.0020062
3616.84	0.0017444
3626.48	0.0015253
3636.13	0.0016525
3645.77	0.0017731
3655.42	0.0016145
3665.06	0.000862
3674.71	0.0019222
3684.35	0.0015005
3694	0.001144
3703.64	0.000591
3713.29	0.00141051
3722.93	0.001581
3732.58	0.00109
3742.22	0.0019928
3751.86	0.0018484
3761.51	0.0020314
3771.15	0.0016674
3780.8	0.001166
3790.44	0.0015854
3800.09	0.0020401
3809.73	0.0012343
3819.38	0.0020865
3829.02	0.0019902
3838.67	0.001192
3848.31	0.0014404
3857.96	0.0016357
3867.6	0.0020997
3877.25	0.0017003
3886.89	0.00029
3896.54	0.0012516
3906.18	0.0016621
3915.83	0.0014574
3925.47	0.001942
3935.12	0.0016109
3944.76	0.00134803
3954.41	0.00132822
3964.05	0.0014298
3973.69	0.0012834
3983.34	0.0014707
3992.98	0.001135
