Infrared Spectrum: 2-Methylbicyclo[2.2.1]-5-heptene-2-carboxylic acid
Formula: C 9 H 12 O 2
CAS: 825-03-6
State: gas
Origin: EPA-IR VAPOR PHASE LIBRARY
1/CM	ABSORBANCE
549.8	0.0132224
559.445	0.0149424
569.09	0.0188324
578.734	0.0229924
588.379	0.0217824
598.024	0.0141024
607.669	0.0077424
617.313	0.0057424
626.958	0.0056724
636.603	0.0098524
646.248	0.0188624
655.893	0.0183524
665.537	0.0084824
675.182	0.0034824
684.827	0.0051224
694.472	0.0117224
704.116	0.0192124
713.761	0.0193724
723.406	0.0160924
733.051	0.0111624
742.695	0.0053324
752.34	0.0043424
761.985	0.0059924
771.63	0.0064224
781.275	0.0048924
790.919	0.0035524
800.564	0.0031524
810.209	0.0038524
819.854	0.0042024
829.498	0.0044024
839.143	0.0044924
848.788	0.0043224
858.433	0.0038124
868.078	0.0034024
877.722	0.0033324
887.367	0.0044324
897.012	0.0045524
906.657	0.0046724
916.301	0.0044424
925.946	0.0041724
935.591	0.0045524
945.236	0.0043024
954.88	0.0032224
964.525	0.0029224
974.17	0.0031924
983.815	0.0022924
993.46	0.0020324
1003.1	0.0024924
1012.75	0.0040924
1022.39	0.0055824
1032.04	0.0052724
1041.68	0.0063824
1051.33	0.0104524
1060.97	0.0202824
1070.62	0.0369324
1080.26	0.0516224
1089.91	0.0575124
1099.55	0.0563124
1109.2	0.0469924
1118.84	0.0346424
1128.49	0.0327824
1138.13	0.0340324
1147.78	0.0305524
1157.42	0.0241424
1167.07	0.0158224
1176.71	0.0106324
1186.36	0.0083624
1196	0.0076724
1205.64	0.0078624
1215.29	0.0085824
1224.93	0.0085224
1234.58	0.0074324
1244.22	0.0063824
1253.87	0.0064924
1263.51	0.0067524
1273.16	0.0067824
1282.8	0.0069524
1292.45	0.0077124
1302.09	0.0098224
1311.74	0.0118924
1321.38	0.0132024
1331.03	0.0137724
1340.67	0.0110524
1350.32	0.0072424
1359.96	0.0056824
1369.61	0.0062224
1379.25	0.0068924
1388.9	0.0053824
1398.54	0.0032124
1408.18	0.0024324
1417.83	0.0025224
1427.47	0.0027624
1437.12	0.0038824
1446.76	0.0066924
1456.41	0.0089324
1466.05	0.0087524
1475.7	0.0061524
1485.34	0.0030724
1494.99	0.0015924
1504.63	0.0011724
1514.28	0.0010147
1523.92	0.0010272
1533.57	0.0011024
1543.21	0.0011924
1552.86	0.0011024
1562.5	0.0014324
1572.15	0.0017624
1581.79	0.0017024
1591.44	0.0013824
1601.08	0.0014624
1610.73	0.0018724
1620.37	0.0022824
1630.01	0.0025924
1639.66	0.0025924
1649.3	0.0020624
1658.95	0.0016424
1668.59	0.0014824
1678.24	0.0017124
1687.88	0.0021624
1697.53	0.0033224
1707.17	0.0060524
1716.82	0.0104524
1726.46	0.0145624
1736.11	0.0216424
1745.75	0.0470724
1755.4	0.0903224
1765.04	0.109032
1774.69	0.0689424
1784.33	0.0287624
1793.98	0.0139524
1803.62	0.0083024
1813.27	0.0050124
1822.91	0.0032124
1832.55	0.0021424
1842.2	0.0014624
1851.84	0.0011824
1861.49	0.0010701
1871.13	0.0009252
1880.78	0.0008853
1890.42	0.0008545
1900.07	0.0007109
1909.71	0.0006738
1919.36	0.0006748
1929	0.0007043
1938.65	0.0008077
1948.29	0.0007183
1957.94	0.0006167
1967.58	0.0005782
1977.23	0.0005021
1986.87	0.0005958
1996.52	0.0005245
2006.16	0.0005412
2015.81	0.000474
2025.45	0.0005091
2035.1	0.0005198
2044.74	0.0005983
2054.38	0.0005935
2064.03	0.0006113
2073.67	0.0006457
2083.32	0.0005431
2092.96	0.0005127
2102.61	0.0005363
2112.25	0.0005484
2121.9	0.0005682
2131.54	0.0006183
2141.19	0.0007005
2150.83	0.0007302
2160.48	0.0007567
2170.12	0.0008378
2179.77	0.0007794
2189.41	0.0008144
2199.06	0.0007353
2208.7	0.0007873
2218.35	0.0007265
2227.99	0.0006042
2237.64	0.0006369
2247.28	0.0004879
2256.92	0.000471
2266.57	0.000399
2276.21	0.0004139
2285.86	0.0004655
2295.5	0.0004302
2305.15	0.0003835
2314.79	0.0004308
2324.44	0.0004178
2334.08	0.000424
2343.73	0.0004685
2353.37	0.0005076
2363.02	0.0004279
2372.66	0.0004317
2382.31	0.0004087
2391.95	0.0004887
2401.6	0.0005242
2411.24	0.0004594
2420.89	0.0005609
2430.53	0.0005337
2440.18	0.0005485
2449.82	0.0004167
2459.47	0.0003774
2469.11	0.0004513
2478.75	0.0003186
2488.4	0.0004628
2498.04	0.0003795
2507.69	0.0003072
2517.33	0.0003048
2526.98	0.000262
2536.62	0.0004222
2546.27	0.0003047
2555.91	0.0002599
2565.56	0.0002859
2575.2	0.0002941
2584.85	0.000376
2594.49	0.0003394
2604.14	0.0002992
2613.78	0.0003602
2623.43	0.0003015
2633.07	0.0002696
2642.72	0.0002957
2652.36	0.0003068
2662.01	0.0002537
2671.65	0.000171
2681.29	0.0003187
2690.94	0.0003446
2700.58	0.0002979
2710.23	0.0003512
2719.87	0.0004248
2729.52	0.0004291
2739.16	0.0005536
2748.81	0.0005264
2758.45	0.0004047
2768.1	0.0003861
2777.74	0.0004692
2787.39	0.0003948
2797.03	0.0005218
2806.68	0.0005568
2816.32	0.0007728
2825.97	0.0010544
2835.61	0.0012324
2845.26	0.0015824
2854.9	0.0020424
2864.55	0.0037824
2874.19	0.0088424
2883.84	0.0143924
2893.48	0.0132324
2903.12	0.0091624
2912.77	0.0083624
2922.41	0.0088824
2932.06	0.0122524
2941.7	0.0174024
2951.35	0.0225124
2960.99	0.0275824
2970.64	0.0443924
2980.28	0.0635224
2989.93	0.0539824
2999.57	0.0243624
3009.22	0.0079524
3018.86	0.0030424
3028.51	0.0021324
3038.15	0.0018924
3047.8	0.0026824
3057.44	0.0063424
3067.09	0.0106224
3076.73	0.0094924
3086.38	0.0048424
3096.02	0.0026324
3105.67	0.0018924
3115.31	0.0016824
3124.95	0.0016324
3134.6	0.0016424
3144.24	0.0017524
3153.89	0.0013124
3163.53	0.0007373
3173.18	0.0004526
3182.82	0.0003224
3192.47	0.0004516
3202.11	0.0003792
3211.76	0.0003729
3221.4	0.000252
3231.05	0.0002075
3240.69	0.0003571
3250.34	0.0002711
3259.98	0.0003598
3269.63	0.0002829
3279.27	0.0004027
3288.92	0.0002922
3298.56	0.00017094
3308.21	0.00016225
3317.85	0.0003419
3327.49	0.00018105
3337.14	0.00017224
3346.78	0.000291
3356.43	0.0002059
3366.07	0.0003224
3375.72	0.0001976
3385.36	0.00014285
3395.01	0.0002701
3404.65	0.0003142
3414.3	0.0001568
3423.94	0.00016874
3433.59	0.0003051
3443.23	0.0002973
3452.88	0.0004882
3462.52	0.0005584
3472.17	0.0006008
3481.81	0.0006766
3491.46	0.0009886
3501.1	0.0010924
3510.75	0.0011624
3520.39	0.0010326
3530.04	0.001056
3539.68	0.0012924
3549.32	0.0025824
3558.97	0.0141424
3568.61	0.0345724
3578.26	0.0332324
3587.9	0.0122624
3597.55	0.0033824
3607.19	0.0015824
3616.84	0.000932
3626.48	0.0006448
3636.13	0.0003791
3645.77	0.0002434
3655.42	0.0003862
3665.06	0.0002453
3674.71	0.0002433
3684.35	0.000222
3694	5.9e-05
3703.64	0.0003103
3713.29	0.0002851
3722.93	0.0002798
3732.58	0.0002885
3742.22	0.000348
3751.86	0.000434
3761.51	0.0004394
3771.15	0.00016317
3780.8	0.0003843
3790.44	0.0003292
3800.09	0.000368
3809.73	0.0002864
3819.38	0.0002291
3829.02	0.0003033
3838.67	0.0003454
3848.31	0.0003484
3857.96	0.0004635
3867.6	0.0003522
3877.25	0.0005309
3886.89	0.0006355
3896.54	0.0006113
3906.18	0.0004062
3915.83	0.0003644
3925.47	0.0003151
3935.12	0.0003747
3944.76	0.0003856
3954.41	0.0005661
3964.05	0.0004576
3973.69	0.0003961
3983.34	0.0003108
3992.98	0.0004514
