Infrared Spectrum: Silane, chloro(p-chlorophenyl)-dimethyl-
Formula: C8 H10 Cl2 Si
CAS: 825-92-3
State: SOLUTION (11% CCl4 FOR 3800-1280, 2% CS2 FOR 1300-650, AND 11% CCl4 FOR 650-250) VS SOLVENT
Boiling point: 92 C AT 5 mmHg
Class: COBLENTZ III
Instrument: PERKIN-ELMER 521 (GRATING)
Instrument parameters: FILTERS AT 3150, 2500, 2000, 1150, 700, 410. GRATING CHANGES: 2000, 630
Path length: 0.010 CM, 0.012 CM, AND 0.010 CM
Resolution: 2
Origin: DOW CORNING CORP.
1/CM	TRANSMITTANCE
228	0.7678
237	0.7751
246	0.7878
255	0.8021
264	0.8102
273	0.8124
282	0.811
291	0.796
300	0.7397
309	0.7006
318	0.6263
327	0.5607
336	0.5722
345	0.8564
354	0.8672
363	0.8693
372	0.8682
381	0.8496
390	0.7979
399	0.77
408	0.8455
417	0.8819
426	0.8835
435	0.8817
444	0.8719
453	0.8269
462	0.6646
471	0.2667
480	0.6271
489	0.3053
498	0.4377
507	0.7596
516	0.6836
525	0.3097
534	0.6156
543	0.8315
552	0.8531
561	0.8654
570	0.8707
579	0.8706
588	0.874
597	0.8791
606	0.8776
615	0.8691
624	0.7981
633	0.8531
642	0.8541
651	0.8452
660	0.802
669	0.6843
678	0.8211
687	0.8528
696	0.8556
705	0.8614
714	0.866
723	0.8557
732	0.6955
741	0.7369
750	0.849
759	0.8474
768	0.7952
777	0.6295
786	0.2407
795	0.5472
804	0.2018
813	0.4688
822	0.6095
831	0.3912
840	0.4692
849	0.7354
858	0.7828
867	0.8154
876	0.8404
885	0.8698
894	0.8761
903	0.8799
912	0.8857
921	0.8851
930	0.8699
939	0.8738
948	0.8858
957	0.8875
966	0.89
975	0.8826
984	0.8763
993	0.8751
1002	0.8528
1011	0.5274
1020	0.8646
1029	0.8543
1038	0.8475
1047	0.8225
1056	0.8198
1065	0.7859
1074	0.6895
1083	0.2963
1092	0.8466
1101	0.8225
1110	0.7557
1119	0.8823
1128	0.8856
1137	0.8988
1146	0.9005
1155	0.8974
1164	0.892
1173	0.8861
1182	0.8941
1191	0.9008
1200	0.8991
1209	0.8915
1218	0.887
1227	0.88
1236	0.8285
1245	0.5852
1254	0.593
1263	0.8619
1272	0.8895
1281	0.8911
1290	0.8637
1299	0.7092
1308	0.8749
1317	0.8373
1326	0.8509
1335	0.8583
1344	0.8721
1353	0.8607
1362	0.8166
1371	0.6456
1380	0.1872
1389	0.7619
1398	0.6247
1407	0.6794
1416	0.8492
1425	0.8444
1434	0.8278
1443	0.8564
1452	0.8594
1461	0.8621
1470	0.8287
1479	0.4454
1488	0.7511
1497	0.8797
1506	0.8886
1515	0.8914
1524	0.8904
1533	0.8871
1542	0.8577
1551	0.7274
1560	0.8059
1569	0.5432
1578	0.1743
1587	0.7333
1596	0.8693
1605	0.8817
1614	0.8751
1623	0.8647
1632	0.8386
1641	0.8284
1650	0.8643
1659	0.8988
1668	0.9035
1677	0.9059
1686	0.9058
1695	0.9042
1704	0.9019
1713	0.8998
1722	0.9007
1731	0.9018
1740	0.9
1749	0.8962
1758	0.8976
1767	0.9041
1776	0.899
1785	0.8782
1794	0.8882
1803	0.9054
1812	0.9028
1821	0.9021
1830	0.8968
1839	0.9067
1848	0.9083
1857	0.9086
1866	0.9073
1875	0.9062
1884	0.8955
1893	0.8863
1902	0.8303
1911	0.8751
1920	0.8863
1929	0.8808
1938	0.8936
1947	0.9016
1956	0.9026
1965	0.9037
1974	0.9095
1983	0.9097
1992	0.9106
2001	0.9148
2010	0.9135
2019	0.9121
2028	0.9111
2037	0.9061
2046	0.9038
2055	0.9066
2064	0.9077
2073	0.9068
2082	0.9062
2091	0.906
2100	0.9068
2109	0.9107
2118	0.9097
2127	0.9078
2136	0.9064
2145	0.9067
2154	0.9066
2163	0.9058
2172	0.9046
2181	0.9033
2190	0.902
2199	0.9015
2208	0.901
2217	0.9006
2226	0.9003
2235	0.8999
2244	0.8997
2253	0.9004
2262	0.9015
2271	0.9034
2280	0.9016
2289	0.8975
2298	0.8976
2307	0.8975
2316	0.8973
2325	0.8973
2334	0.8987
2343	0.8997
2352	0.9003
2361	0.9001
2370	0.8994
2379	0.8981
2388	0.8967
2397	0.8954
2406	0.8951
2415	0.8952
2424	0.8954
2433	0.8957
2442	0.8949
2451	0.8933
2460	0.8918
2469	0.897
2478	0.8901
2487	0.8789
2496	0.8736
2505	0.8742
2514	0.881
2523	0.8869
2532	0.8913
2541	0.8923
2550	0.8914
2559	0.8888
2568	0.8869
2577	0.8854
2586	0.8841
2595	0.8856
2604	0.8875
2613	0.8875
2622	0.8858
2631	0.8836
2640	0.8801
2649	0.8777
2658	0.8757
2667	0.8755
2676	0.8753
2685	0.8756
2694	0.8761
2703	0.8775
2712	0.8792
2721	0.8792
2730	0.878
2739	0.8764
2748	0.8746
2757	0.8735
2766	0.8723
2775	0.87
2784	0.8641
2793	0.8597
2802	0.8623
2811	0.8651
2820	0.8682
2829	0.8713
2838	0.8718
2847	0.8693
2856	0.8674
2865	0.8659
2874	0.8629
2883	0.8586
2892	0.8483
2901	0.8353
2910	0.8249
2919	0.8366
2928	0.841
2937	0.8344
2946	0.8174
2955	0.7923
2964	0.7329
2973	0.6019
2982	0.629
2991	0.761
3000	0.826
3009	0.8161
3018	0.7858
3027	0.7522
3036	0.787
3045	0.7837
3054	0.7747
3063	0.8262
3072	0.817
3081	0.7815
3090	0.8041
3099	0.8321
3108	0.8359
3117	0.8348
3126	0.834
3135	0.8331
3144	0.8316
3153	0.8354
3162	0.8424
3171	0.8537
3180	0.8618
3189	0.8684
3198	0.875
3207	0.8811
3216	0.8861
3225	0.8897
3234	0.8936
3243	0.8973
3252	0.8999
3261	0.9023
3270	0.9035
3279	0.9041
3288	0.9047
3297	0.9052
3306	0.9055
3315	0.906
3324	0.907
3333	0.9088
3342	0.9101
3351	0.9103
3360	0.9106
3369	0.9109
3378	0.9111
3387	0.9114
3396	0.9118
3405	0.9121
3414	0.9125
3423	0.9128
3432	0.9133
3441	0.9136
3450	0.9141
3459	0.9144
3468	0.9148
3477	0.9152
3486	0.9156
3495	0.9158
3504	0.9156
3513	0.9153
3522	0.9151
3531	0.9146
3540	0.9143
3549	0.9138
3558	0.9135
3567	0.9132
3576	0.9129
3585	0.9125
3594	0.9179
3603	0.9215
3612	0.9141
3621	0.9061
3630	0.9096
3639	0.9142
3648	0.9131
3657	0.903
3666	0.9032
3675	0.9031
3684	0.9041
3693	0.905
3702	0.8935
3711	0.8876
3720	0.8916
3729	0.8941
3738	0.8959
3747	0.9039
3756	0.9113
3765	0.9121
3774	0.9067
3783	0.9055
3792	0.9095
3801	0.912
3810	0.9081
3819	0.9084
