Infrared Spectrum: 3-Amino-5-tert-butylpyrazole
Formula: C 7 H 13 N 3
CAS: 82560-12-1
State: gas
Origin: EPA-IR VAPOR PHASE LIBRARY
1/CM	ABSORBANCE
549.8	0.00574
559.445	0.00546
569.09	0.00657
578.734	0.00635
588.379	0.00645
598.024	0.00803
607.669	0.00879
617.313	0.00966
626.958	0.0096
636.603	0.00907
646.248	0.00787
655.893	0.00654
665.537	0.00687
675.182	0.00763
684.827	0.00861
694.472	0.01052
704.116	0.01068
713.761	0.00835
723.406	0.00695
733.051	0.00637
742.695	0.00657
752.34	0.00895
761.985	0.01216
771.63	0.01293
781.275	0.01027
790.919	0.00817
800.564	0.00588
810.209	0.00602
819.854	0.0053
829.498	0.00627
839.143	0.00593
848.788	0.00591
858.433	0.0062
868.078	0.00621
877.722	0.00705
887.367	0.00688
897.012	0.00682
906.657	0.00573
916.301	0.00512
925.946	0.0043
935.591	0.00382
945.236	0.00422
954.88	0.00373
964.525	0.00478
974.17	0.00822
983.815	0.0088
993.46	0.00597
1003.1	0.004
1012.75	0.0028
1022.39	0.00253
1032.04	0.00209
1041.68	0.00286
1051.33	0.00322
1060.97	0.00359
1070.62	0.00605
1080.26	0.00659
1089.91	0.00618
1099.55	0.00466
1109.2	0.00392
1118.84	0.00401
1128.49	0.00457
1138.13	0.00387
1147.78	0.00281
1157.42	0.00289
1167.07	0.0032
1176.71	0.00254
1186.36	0.00341
1196	0.00382
1205.64	0.00454
1215.29	0.00494
1224.93	0.00358
1234.58	0.00329
1244.22	0.00323
1253.87	0.00212
1263.51	0.00294
1273.16	0.00615
1282.8	0.01492
1292.45	0.01566
1302.09	0.00565
1311.74	0.00205
1321.38	0.00187
1331.03	0.00165
1340.67	0.00197
1350.32	0.00368
1359.96	0.00664
1369.61	0.00899
1379.25	0.00804
1388.9	0.00687
1398.54	0.00621
1408.18	0.00529
1417.83	0.00443
1427.47	0.00515
1437.12	0.00764
1446.76	0.01088
1456.41	0.01588
1466.05	0.02764
1475.7	0.03814
1485.34	0.0332
1494.99	0.01777
1504.63	0.00915
1514.28	0.00518
1523.92	0.00428
1533.57	0.00447
1543.21	0.00645
1552.86	0.01278
1562.5	0.02631
1572.15	0.03362
1581.79	0.02575
1591.44	0.01631
1601.08	0.01835
1610.73	0.02516
1620.37	0.02295
1630.01	0.01307
1639.66	0.00628
1649.3	0.00393
1658.95	0.0029
1668.59	0.00181
1678.24	0.00167
1687.88	0.00149
1697.53	0.00141
1707.17	0.00115
1716.82	0.00137
1726.46	0.0008718
1736.11	0.00113
1745.75	0.0008699
1755.4	0.0009593
1765.04	0.00115
1774.69	0.0009984
1784.33	0.0009988
1793.98	0.00105
1803.62	0.00105
1813.27	0.00108
1822.91	0.0006745
1832.55	0.0008296
1842.2	0.0009759
1851.84	0.00104
1861.49	0.000559
1871.13	0.0007445
1880.78	0.000891
1890.42	0.0006615
1900.07	0.0006818
1909.71	0.0005382
1919.36	0.0008627
1929	0.0006873
1938.65	0.0008248
1948.29	0.0005728
1957.94	0.0006779
1967.58	0.0006421
1977.23	0.0006446
1986.87	0.0007618
1996.52	0.0007564
2006.16	0.0006638
2015.81	0.0006332
2025.45	0.0006732
2035.1	0.0006518
2044.74	0.0004752
2054.38	0.0007691
2064.03	0.0005552
2073.67	0.0007475
2083.32	0.000737
2092.96	0.000852
2102.61	0.0005067
2112.25	0.000667
2121.9	0.0006013
2131.54	0.000906
2141.19	0.0009513
2150.83	0.0008776
2160.48	0.0006779
2170.12	0.0005346
2179.77	0.0007913
2189.41	0.0008903
2199.06	0.0009582
2208.7	0.0008475
2218.35	0.0007429
2227.99	0.0007845
2237.64	0.0007042
2247.28	0.0004591
2256.92	0.0005765
2266.57	0.0003472
2276.21	0.0009487
2285.86	0.0007739
2295.5	0.0008773
2305.15	0.0005427
2314.79	0.0005972
2324.44	0.0004752
2334.08	0.0007758
2343.73	0.0005354
2353.37	0.0004696
2363.02	0.0004503
2372.66	0.0007375
2382.31	0.0006984
2391.95	0.0006797
2401.6	0.0002637
2411.24	0.0007955
2420.89	0.0008366
2430.53	0.0003398
2440.18	0.0005359
2449.82	0.0007733
2459.47	0.0003581
2469.11	0.000542
2478.75	0.0005332
2488.4	0.0006699
2498.04	0.00034
2507.69	0.0007019
2517.33	0.0006039
2526.98	0.0007059
2536.62	0.0005371
2546.27	0.0006563
2555.91	0.0005179
2565.56	0.0006188
2575.2	0.0005154
2584.85	0.0007594
2594.49	0.00109
2604.14	0.00089
2613.78	0.0008167
2623.43	0.0002446
2633.07	0.0004679
2642.72	0.000642
2652.36	0.0007375
2662.01	0.0009049
2671.65	0.0007728
2681.29	0.0009613
2690.94	0.0009204
2700.58	0.00105
2710.23	0.0006784
2719.87	0.0009129
2729.52	0.0011
2739.16	0.0007072
2748.81	0.0006947
2758.45	0.00111
2768.1	0.0009498
2777.74	0.00118
2787.39	0.00106
2797.03	0.0009261
2806.68	0.0013
2816.32	0.0017
2825.97	0.00128
2835.61	0.0015
2845.26	0.00239
2854.9	0.00362
2864.55	0.0064
2874.19	0.00946
2883.84	0.01024
2893.48	0.01034
2903.12	0.01159
2912.77	0.01357
2922.41	0.01395
2932.06	0.01457
2941.7	0.0169
2951.35	0.02381
2960.99	0.04017
2970.64	0.05082
2980.28	0.03531
2989.93	0.01407
2999.57	0.00525
3009.22	0.00252
3018.86	0.00156
3028.51	0.00121
3038.15	0.00137
3047.8	0.00123
3057.44	0.0005343
3067.09	0.00113
3076.73	0.0009955
3086.38	0.0006847
3096.02	0.0011
3105.67	0.00102
3115.31	0.00103
3124.95	0.00117
3134.6	0.0005843
3144.24	0.00105
3153.89	0.00147
3163.53	0.0009066
3173.18	0.0008319
3182.82	0.00116
3192.47	0.000732
3202.11	0.0014
3211.76	0.0008136
3221.4	0.0005748
3231.05	0.0007791
3240.69	0.0007932
3250.34	0.00124
3259.98	0.00114
3269.63	0.0009579
3279.27	0.0004673
3288.92	0.00103
3298.56	0.0004907
3308.21	0.0009721
3317.85	0.0007797
3327.49	0.0009278
3337.14	0.0002515
3346.78	0.00118
3356.43	0.0006881
3366.07	0.0005354
3375.72	0.00159
3385.36	0.00298
3395.01	0.00315
3404.65	0.00264
3414.3	0.00104
3423.94	0.00202
3433.59	0.0009977
3443.23	0.00154
3452.88	0.00161
3462.52	0.00384
3472.17	0.00475
3481.81	0.00629
3491.46	0.00942
3501.1	0.01263
3510.75	0.01454
3520.39	0.0132
3530.04	0.00918
3539.68	0.00579
3549.32	0.00283
3558.97	0.00119
3568.61	0.00108
3578.26	0.0007965
3587.9	0.00139
3597.55	0.0006395
3607.19	0.0008198
3616.84	0.0009736
3626.48	0.0009679
3636.13	0.0007947
3645.77	0.0005665
3655.42	0.0003607
3665.06	0.0009043
3674.71	0.0003481
3684.35	0.0009067
3694	0.0004903
3703.64	0.0004064
3713.29	0.0001431
3722.93	0.00109
3732.58	0.0008596
3742.22	0.0005687
3751.86	0.0005791
3761.51	0.0006177
3771.15	0.0006391
3780.8	0.00107
3790.44	0.0003656
3800.09	0.0006138
3809.73	0.0003675
3819.38	0.0006048
3829.02	0.00126
3838.67	0.0002083
3848.31	0.0004847
3857.96	0.0003316
3867.6	0.0002851
3877.25	0.0006185
3886.89	0.0006286
3896.54	0.0001555
3906.18	0.00111
3915.83	0.0001166
3925.47	0.0006396
3935.12	0.0007005
3944.76	0.0002031
3954.41	0.0006412
3964.05	0.00113
3973.69	0.0004497
3983.34	0.000464
3992.98	0.0003101
