Infrared Spectrum: 2-PYRIDINECARBAMIC ACID, 6-AMINO-4-[[2-HYDROXY-3-(METHYLPHENYLAMINO)PROPYL]AMINO]-5-NITRO-, ETHYL ESTER
Formula: C18 H24 N6 O5
CAS: 82585-86-2
State: SOLID (1 mg / 650 mg KBr DISC)
Class: COBLENTZ III
Instrument: PERKIN-ELMER 521 (GRATING)
Instrument parameters: FILTERS AT 3150, 2500, 2000, 1150, 700, 410 CM ^-^1, GRATING CHANGES AT 2000, 630 CM^-^1
Sampling: TRANSMISSION
Resolution: 4
Origin: SOUTHERN RES. INSTITUTE
1/CM	TRANSMITTANCE
244.501	0.281
253.515	0.3496
262.529	0.4085
271.543	0.4589
280.557	0.5035
289.571	0.5436
298.585	0.5757
307.6	0.5955
316.614	0.6169
325.628	0.6405
334.642	0.6679
343.656	0.6872
352.67	0.7
361.684	0.7114
370.698	0.7172
379.712	0.7214
388.726	0.7489
397.74	0.7483
406.754	0.7443
415.768	0.7414
424.782	0.7326
433.797	0.73
442.811	0.7342
451.825	0.736
460.839	0.733
469.853	0.7378
478.867	0.739
487.881	0.7364
496.895	0.7345
505.909	0.724
514.923	0.7274
523.937	0.7381
532.951	0.7429
541.965	0.743
550.979	0.7366
559.994	0.7304
569.008	0.7315
578.022	0.7363
587.036	0.742
596.05	0.7451
605.064	0.749
614.078	0.746
623.092	0.7491
632.106	0.7596
641.12	0.7679
650.134	0.7703
659.148	0.7782
668.162	0.7809
677.177	0.7513
686.191	0.6782
695.205	0.7316
704.219	0.7956
713.233	0.7989
722.247	0.803
731.261	0.7908
740.275	0.6549
749.289	0.6983
758.303	0.7448
767.317	0.746
776.331	0.7497
785.345	0.789
794.359	0.7255
803.374	0.7608
812.388	0.8214
821.402	0.8439
830.416	0.843
839.43	0.8393
848.444	0.8314
857.458	0.7966
866.472	0.8169
875.486	0.8336
884.5	0.82
893.514	0.8309
902.528	0.8312
911.542	0.8297
920.556	0.834
929.571	0.8306
938.585	0.8221
947.599	0.8076
956.613	0.8001
965.627	0.804
974.641	0.8004
983.655	0.7399
992.669	0.7365
1001.68	0.7336
1010.7	0.718
1019.71	0.715
1028.73	0.6859
1037.74	0.6788
1046.75	0.7202
1055.77	0.724
1064.78	0.7199
1073.8	0.6999
1082.81	0.6677
1091.82	0.6388
1100.84	0.6441
1109.85	0.6619
1118.87	0.666
1127.88	0.644
1136.89	0.5694
1145.91	0.4828
1154.92	0.4797
1163.94	0.5274
1172.95	0.5783
1181.96	0.5941
1190.98	0.4941
1199.99	0.3831
1209.01	0.3335
1218.02	0.3681
1227.03	0.4269
1236.05	0.4865
1245.06	0.4727
1254.08	0.436
1263.09	0.488
1272.11	0.5695
1281.12	0.6091
1290.13	0.6216
1299.15	0.5991
1308.16	0.5731
1317.18	0.5921
1326.19	0.6319
1335.2	0.6778
1344.22	0.679
1353.23	0.676
1362.25	0.6472
1371.26	0.6437
1380.27	0.6301
1389.29	0.6601
1398.3	0.7006
1407.32	0.663
1416.33	0.5874
1425.34	0.6101
1434.36	0.6561
1443.37	0.67
1452.39	0.6291
1461.4	0.635
1470.41	0.6208
1479.43	0.4994
1488.44	0.418
1497.46	0.372
1506.47	0.4016
1515.49	0.6353
1524.5	0.6305
1533.51	0.5689
1542.53	0.4724
1551.54	0.3507
1560.56	0.314
1569.57	0.3385
1578.58	0.3748
1587.6	0.3126
1596.61	0.2291
1605.63	0.2849
1614.64	0.3628
1623.65	0.4953
1632.67	0.6095
1641.68	0.693
1650.7	0.7418
1659.71	0.7672
1668.72	0.7893
1677.74	0.798
1686.75	0.799
1695.77	0.7928
1704.78	0.7533
1713.79	0.7186
1722.81	0.655
1731.82	0.5171
1740.84	0.4659
1749.85	0.5997
1758.87	0.744
1767.88	0.8259
1776.89	0.8482
1785.91	0.8584
1794.92	0.866
1803.94	0.8682
1812.95	0.8691
1821.96	0.873
1830.98	0.8749
1839.99	0.876
1849.01	0.879
1858.02	0.881
1867.03	0.882
1876.05	0.883
1885.06	0.882
1894.08	0.882
1903.09	0.881
1912.1	0.879
1921.12	0.88
1930.13	0.881
1939.15	0.882
1948.16	0.882
1957.17	0.883
1966.19	0.884
1975.2	0.885
1984.22	0.885
1993.23	0.885
2002.25	0.8825
2011.26	0.88
2020.27	0.879
2029.29	0.879
2038.3	0.878
2047.32	0.878
2056.33	0.878
2065.34	0.878
2074.36	0.878
2083.37	0.878
2092.39	0.878
2101.4	0.878
2110.41	0.877
2119.43	0.876
2128.44	0.875
2137.46	0.876
2146.47	0.877
2155.48	0.877
2164.5	0.876
2173.51	0.873
2182.53	0.872
2191.54	0.871
2200.55	0.869
2209.57	0.87
2218.58	0.872
2227.6	0.872
2236.61	0.873
2245.63	0.87
2254.64	0.869
2263.65	0.869
2272.67	0.869
2281.68	0.869
2290.7	0.8685
2299.71	0.8665
2308.72	0.8655
2317.74	0.863
2326.75	0.8615
2335.77	0.861
2344.78	0.863
2353.79	0.862
2362.81	0.861
2371.82	0.863
2380.84	0.865
2389.85	0.866
2398.86	0.865
2407.88	0.863
2416.89	0.863
2425.91	0.864
2434.92	0.865
2443.93	0.865
2452.95	0.864
2461.96	0.863
2470.98	0.861
2479.99	0.8605
2489.01	0.856
2498.02	0.854
2507.03	0.854
2516.05	0.852
2525.06	0.851
2534.08	0.851
2543.09	0.8505
2552.1	0.85
2561.12	0.85
2570.13	0.851
2579.15	0.85
2588.16	0.85
2597.17	0.849
2606.19	0.849
2615.2	0.849
2624.22	0.848
2633.23	0.848
2642.24	0.8475
2651.26	0.846
2660.27	0.845
2669.29	0.844
2678.3	0.844
2687.31	0.842
2696.33	0.8395
2705.34	0.8385
2714.36	0.836
2723.37	0.835
2732.39	0.833
2741.4	0.8305
2750.41	0.829
2759.43	0.8275
2768.44	0.8255
2777.46	0.82
2786.47	0.813
2795.48	0.806
2804.5	0.7985
2813.51	0.792
2822.53	0.789
2831.54	0.79
2840.55	0.789
2849.57	0.7785
2858.58	0.764
2867.6	0.7545
2876.61	0.7495
2885.62	0.747
2894.64	0.745
2903.65	0.735
2912.67	0.7225
2921.68	0.721
2930.69	0.723
2939.71	0.731
2948.72	0.736
2957.74	0.734
2966.75	0.735
2975.77	0.732
2984.78	0.734
2993.79	0.7475
3002.81	0.7615
3011.82	0.766
3020.84	0.7625
3029.85	0.76
3038.86	0.762
3047.88	0.761
3056.89	0.757
3065.91	0.754
3074.92	0.7575
3083.93	0.758
3092.95	0.7495
3101.96	0.744
3110.98	0.7415
3119.99	0.7435
3129	0.743
3138.02	0.725
3147.03	0.722
3156.05	0.7205
3165.06	0.719
3174.07	0.718
3183.09	0.718
3192.1	0.718
3201.12	0.7225
3210.13	0.724
3219.15	0.721
3228.16	0.712
3237.17	0.7095
3246.19	0.7015
3255.2	0.694
3264.22	0.6785
3273.23	0.669
3282.24	0.6625
3291.26	0.6585
3300.27	0.649
3309.29	0.638
3318.3	0.622
3327.31	0.606
3336.33	0.594
3345.34	0.5915
3354.36	0.5965
3363.37	0.605
3372.38	0.624
3381.4	0.6395
3390.41	0.643
3399.43	0.639
3408.44	0.6415
3417.45	0.646
3426.47	0.649
3435.48	0.653
3444.5	0.6475
3453.51	0.638
3462.53	0.6265
3471.54	0.623
3480.55	0.63
3489.57	0.6535
3498.58	0.6814
3507.6	0.7065
3516.61	0.73
3525.62	0.7495
3534.64	0.7645
3543.65	0.774
3552.67	0.7795
3561.68	0.792
3570.69	0.802
3579.71	0.8125
3588.72	0.821
3597.74	0.826
3606.75	0.834
3615.76	0.843
3624.78	0.846
3633.79	0.849
3642.81	0.851
3651.82	0.853
3660.83	0.853
3669.85	0.851
3678.86	0.851
3687.88	0.854
3696.89	0.855
3705.91	0.855
3714.92	0.854
3723.93	0.853
3732.95	0.852
3741.96	0.8515
3750.98	0.8535
3759.99	0.854
3769	0.853
3778.02	0.851
