Infrared Spectrum: 1-VINYL NAPHTHALENE
Formula: C12 H10
CAS: 826-74-4
State: LIQUID
Boiling point: 124-125 C AT 15 mmHg
Class: COBLENTZ
Instrument: Not specified, most likely a prism, grating, or hybrid spectrometer.
Sampling: TRANSMISSION
Path length: FILM
Resolution: 4
Origin: UNION CARBIDE CORPORATION (CARBON PRODUCTS DIVISION)
MICROMETERS	TRANSMITTANCE
2.027	0.853
2.0602	0.851
2.09341	0.851
2.12661	0.849
2.15981	0.847
2.19302	0.847
2.22622	0.847
2.25942	0.847
2.29263	0.849
2.32583	0.845
2.35903	0.849
2.39223	0.849
2.42544	0.845
2.45864	0.843
2.49184	0.842
2.52505	0.843
2.55825	0.843
2.59145	0.845
2.62466	0.849
2.65786	0.851
2.69106	0.853
2.72427	0.855
2.75747	0.854
2.79067	0.847
2.82388	0.839
2.85708	0.846
2.89028	0.855
2.92348	0.854
2.95669	0.851
2.98989	0.853
3.02309	0.851
3.0563	0.854
3.0895	0.853
3.1227	0.851
3.15591	0.85
3.18911	0.847
3.22231	0.77
3.25552	0.532
3.28872	0.371
3.32192	0.512
3.35513	0.595
3.38833	0.558
3.42153	0.56
3.45473	0.623
3.48794	0.698
3.52114	0.74
3.55434	0.819
3.58755	0.845
3.62075	0.855
3.65395	0.859
3.68716	0.861
3.72036	0.863
3.75356	0.871
3.78677	0.871
3.81997	0.867
3.85317	0.873
3.88638	0.871
3.91958	0.873
3.95278	0.871
3.98598	0.871
4.01919	0.871
4.05239	0.871
4.08559	0.871
4.1188	0.871
4.152	0.87
4.1852	0.87
4.21841	0.871
4.25161	0.871
4.28481	0.87
4.31802	0.87
4.35122	0.87
4.38442	0.87
4.41763	0.877
4.45083	0.881
4.48403	0.881
4.51723	0.885
4.55044	0.885
4.58364	0.885
4.61684	0.883
4.65005	0.886
4.68325	0.886
4.71645	0.886
4.74966	0.886
4.78286	0.886
4.81606	0.887
4.84927	0.885
4.88247	0.886
4.91567	0.885
4.94888	0.885
4.98208	0.887
5.01528	0.886
5.04849	0.882
5.08169	0.87
5.11489	0.815
5.14809	0.793
5.1813	0.782
5.2145	0.791
5.2477	0.83
5.28091	0.845
5.31411	0.842
5.34731	0.83
5.38052	0.822
5.41372	0.79
5.44692	0.777
5.48013	0.774
5.51333	0.759
5.54653	0.813
5.57974	0.841
5.61294	0.833
5.64614	0.831
5.67934	0.841
5.71255	0.851
5.74575	0.85
5.77895	0.85
5.81216	0.845
5.84536	0.834
5.87856	0.827
5.91177	0.823
5.94497	0.826
5.97817	0.846
6.01138	0.845
6.04458	0.822
6.07778	0.732
6.11099	0.632
6.14419	0.676
6.17739	0.735
6.21059	0.61
6.2438	0.539
6.277	0.683
6.3102	0.726
6.34341	0.781
6.37661	0.834
6.40981	0.845
6.44302	0.851
6.47622	0.838
6.50942	0.819
6.54263	0.799
6.57583	0.547
6.60903	0.42
6.64224	0.67
6.67544	0.79
6.70864	0.819
6.74184	0.829
6.77505	0.794
6.80825	0.739
6.84145	0.73
6.87466	0.627
6.90786	0.631
6.94106	0.642
6.97427	0.683
7.00747	0.632
7.04067	0.602
7.07388	0.754
7.10708	0.744
7.14028	0.544
7.17349	0.555
7.20669	0.64
7.23989	0.662
7.27309	0.664
7.3063	0.708
7.3395	0.73
7.3727	0.715
7.40591	0.674
7.43911	0.59
7.47231	0.73
7.50552	0.744
7.53872	0.746
7.57192	0.762
7.60513	0.786
7.63833	0.787
7.67153	0.782
7.70474	0.786
7.73794	0.79
7.77114	0.793
7.80435	0.786
7.83755	0.722
7.87075	0.699
7.90395	0.648
7.93716	0.668
7.97036	0.712
8.00356	0.758
8.03677	0.769
8.06997	0.73
8.10317	0.753
8.13638	0.781
8.16958	0.786
8.20278	0.77
8.23599	0.719
8.26919	0.72
8.30239	0.754
8.3356	0.774
8.3688	0.782
8.402	0.782
8.4352	0.775
8.46841	0.74
8.50161	0.683
8.53481	0.57
8.56802	0.606
8.60122	0.644
8.63442	0.694
8.66763	0.704
8.70083	0.707
8.73403	0.672
8.76724	0.72
8.80044	0.757
8.83364	0.755
8.86685	0.694
8.90005	0.751
8.93325	0.763
8.96645	0.762
8.99966	0.755
9.03286	0.753
9.06606	0.763
9.09927	0.763
9.13247	0.758
9.16567	0.761
9.19888	0.782
9.23208	0.797
9.26528	0.81
9.29849	0.823
9.33169	0.829
9.36489	0.829
9.3981	0.829
9.4313	0.821
9.4645	0.821
9.4977	0.833
9.53091	0.841
9.56411	0.842
9.59731	0.827
9.63052	0.791
9.66372	0.753
9.69692	0.704
9.73013	0.663
9.76333	0.662
9.79653	0.664
9.82974	0.682
9.86294	0.631
9.89614	0.562
9.92935	0.635
9.96255	0.659
9.99575	0.635
10.029	0.551
10.0622	0.432
10.0954	0.352
10.1286	0.356
10.1618	0.46
10.195	0.57
10.2282	0.619
10.2614	0.65
10.2946	0.658
10.3278	0.652
10.361	0.648
10.3942	0.662
10.4274	0.684
10.4606	0.682
10.4938	0.632
10.527	0.62
10.5602	0.636
10.5934	0.694
10.6266	0.716
10.6598	0.719
10.693	0.695
10.7262	0.651
10.7594	0.578
10.7926	0.503
10.8258	0.436
10.859	0.375
10.8922	0.349
10.9254	0.339
10.9586	0.337
10.9918	0.361
11.025	0.401
11.0583	0.449
11.0915	0.485
11.1247	0.52
11.1579	0.523
11.1911	0.535
11.2243	0.582
11.2575	0.654
11.2907	0.711
11.3239	0.75
11.3571	0.775
11.3903	0.786
11.4235	0.789
11.4567	0.787
11.4899	0.762
11.5231	0.703
11.5563	0.578
11.5895	0.487
11.6227	0.424
11.6559	0.413
11.6891	0.457
11.7223	0.586
11.7555	0.69
11.7887	0.742
11.8219	0.771
11.8551	0.782
11.8883	0.787
11.9215	0.79
11.9547	0.789
11.9879	0.778
12.0211	0.759
12.0543	0.73
12.0875	0.659
12.1208	0.563
12.154	0.472
12.1872	0.411
12.2204	0.401
12.2536	0.44
12.2868	0.503
12.32	0.534
12.3532	0.52
12.3864	0.415
12.4196	0.279
12.4528	0.164
12.486	0.128
12.5192	0.126
12.5524	0.15
12.5856	0.221
12.6188	0.3
12.652	0.357
12.6852	0.373
12.7184	0.291
12.7516	0.189
12.7848	0.11
12.818	0.066
12.8512	0.062
12.8844	0.06
12.9176	0.069
12.9508	0.156
12.984	0.252
13.0172	0.369
13.0504	0.467
13.0836	0.507
13.1168	0.543
13.15	0.556
13.1833	0.555
13.2165	0.516
13.2497	0.444
13.2829	0.381
13.3161	0.36
13.3493	0.356
13.3825	0.365
13.4157	0.423
13.4489	0.5
13.4821	0.555
13.5153	0.595
13.5485	0.603
13.5817	0.6
13.6149	0.591
13.6481	0.591
13.6813	0.611
13.7145	0.642
13.7477	0.684
13.7809	0.722
13.8141	0.753
13.8473	0.771
13.8805	0.782
13.9137	0.79
13.9469	0.79
13.9801	0.797
14.0133	0.791
14.0465	0.79
14.0797	0.787
14.1129	0.775
14.1461	0.766
14.1793	0.763
14.2125	0.766
14.2458	0.762
14.279	0.75
14.3122	0.739
14.3454	0.719
14.3786	0.688
14.4118	0.659
14.445	0.628
14.4782	0.598
14.5114	0.588
14.5446	0.61
14.5778	0.65
14.611	0.699
14.6442	0.726
14.6774	0.75
14.7106	0.773
14.7438	0.775
14.777	0.782
14.8102	0.789
14.8434	0.791
14.8766	0.797
14.9098	0.798
14.943	0.802
14.9762	0.807
15.0094	0.811
15.0426	0.805
15.0758	0.81
15.109	0.811
15.1422	0.81
