Infrared Spectrum: 8-Hydroxyquinaldine
Formula: C 10 H 9 N O
CAS: 826-81-3
State: gas
Instrument: HP-GC/MS/IRD
Origin: NIST Mass Spectrometry Data Center
1/CM	ABSORBANCE
550	0.0042048
562	0.0046116
574	0.0098388
586	0.0142416
598	0.0078876
610	0.0018216
622	0.0004968
634	0.0003744
646	0.0002556
658	6.48e-05
670	8.64e-05
682	0.0004464
694	0.0010656
706	0.0020484
718	0.0051264
730	0.0078228
742	0.0126756
754	0.0083592
766	0.0022572
778	0.002124
790	0.0053712
802	0.0037512
814	0.003942
826	0.0108828
838	0.0079236
850	0.0024012
862	0.0018288
874	0.001062
886	0.0005688
898	0.000702
910	0.0006336
922	0.000414
934	0.0004428
946	0.0005724
958	0.0007956
970	0.000954
982	0.0010404
994	0.0014544
1006	0.001638
1018	0.0011052
1030	0.0010404
1042	0.0017676
1054	0.0016452
1066	0.0017352
1078	0.0029592
1090	0.0067644
1102	0.0085968
1114	0.0085716
1126	0.0061308
1138	0.0029088
1150	0.0018972
1162	0.0025812
1174	0.0025272
1186	0.003132
1198	0.0077076
1210	0.0102744
1222	0.0104148
1234	0.01242
1246	0.0246636
1258	0.036
1270	0.0253908
1282	0.0101448
1294	0.0031212
1306	0.0039816
1318	0.0133956
1330	0.0157752
1342	0.0066816
1354	0.00846
1366	0.0107316
1378	0.0076716
1390	0.007794
1402	0.009054
1414	0.007272
1426	0.0090792
1438	0.0136368
1450	0.0144144
1462	0.0201996
1474	0.025668
1486	0.0163656
1498	0.0191304
1510	0.03024
1522	0.0159624
1534	0.0057024
1546	0.0047232
1558	0.008892
1570	0.015444
1582	0.0113832
1594	0.010116
1606	0.011502
1618	0.0052704
1630	0.0022104
1642	0.0011916
1654	0.000702
1666	0.0005112
1678	0.0003888
1690	0.0007524
1702	0.0010584
1714	0.0005472
1726	0.0003708
1738	0.0007236
1750	0.00099
1762	0.0005364
1774	0.0002736
1786	0.0003348
1798	0.0003564
1810	0.0004428
1822	0.000702
1834	0.0005724
1846	0.0002016
1858	9.72e-05
1870	7.2e-05
1882	0.000108
1894	0.0005112
1906	0.0011232
1918	0.0008604
1930	0.0006804
1942	0.0004104
1954	0.0001368
1966	7.92e-05
1978	0.0001008
1990	9.36e-05
2002	4.32e-05
2014	4.68e-05
2026	3.6e-05
2038	1.8e-05
2050	6.12e-05
2062	6.12e-05
2074	3.6e-05
2086	4.32e-05
2098	3.6e-06
2110	1.8e-05
2122	5.4e-05
2134	3.6e-05
2146	2.88e-05
2158	5.76e-05
2170	0.0001332
2182	5.76e-05
2194	8.28e-05
2206	6.84e-05
2218	5.04e-05
2230	3.24e-05
2242	1.44e-05
2254	2.88e-05
2266	8.28e-05
2278	0.0001044
2290	0.0001404
2302	0.0001476
2314	0.0001548
2326	0.0001152
2338	0.0001584
2350	0.0001944
2362	0.0001656
2374	0.000126
2386	0.0001188
2398	0.0001296
2410	0.0001152
2422	0.0001188
2434	0.0001116
2446	9e-05
2458	0.0001404
2470	0.0001332
2482	0.0001476
2494	0.00018
2506	0.0002376
2518	0.0002448
2530	0.0001512
2542	7.92e-05
2554	7.2e-05
2566	0.0001584
2578	0.0001584
2590	0.0001872
2602	0.0002124
2614	0.0001872
2626	0.00018
2638	0.0001152
2650	8.28e-05
2662	3.6e-05
2674	7.2e-05
2686	3.96e-05
2698	3.6e-05
2710	2.88e-05
2722	4.68e-05
2734	0.0001116
2746	7.92e-05
2758	4.68e-05
2770	2.16e-05
2782	4.68e-05
2794	7.92e-05
2806	0.0001332
2818	0.0001584
2830	0.0003528
2842	0.0006336
2854	0.0010836
2866	0.0013428
2878	0.0013752
2890	0.0013104
2902	0.001476
2914	0.0020556
2926	0.0041652
2938	0.0051768
2950	0.0030924
2962	0.0020628
2974	0.0015156
2986	0.0011628
2998	0.0014256
3010	0.0021492
3022	0.0029952
3034	0.003816
3046	0.0063792
3058	0.012366
3070	0.0106776
3082	0.0050292
3094	0.002538
3106	0.0014364
3118	0.0010476
3130	0.000594
3142	0.0002592
3154	0.0001764
3166	0.0001908
3178	0.0001728
3190	0.0003456
3202	0.0005256
3214	0.0010188
3226	0.001116
3238	0.0006192
3250	0.0003744
3262	0.0001656
3274	4.32e-05
3286	4.32e-05
3298	1.08e-05
3310	6.84e-05
3322	2.52e-05
3334	6.48e-05
3346	5.4e-05
3358	0.0001512
3370	0.0001836
3382	0.000234
3394	0.000522
3406	0.0009576
3418	0.0026028
3430	0.0090504
3442	0.0222228
3454	0.0161784
3466	0.0060264
3478	0.0049392
3490	0.0029124
3502	0.0012024
3514	0.0006156
3526	0.0003636
3538	0.0001908
3550	0.000126
3562	3.24e-05
3574	7.56e-05
3586	8.64e-05
3598	0.0001044
3610	0.0001512
3622	0.0002052
3634	0.0003096
3646	0.0004644
3658	0.00063
3670	0.0004392
3682	0.000216
3694	0.0001548
3706	4.68e-05
3718	4.68e-05
3730	9.72e-05
3742	8.64e-05
3754	0.0001404
3766	0.000126
3778	0.0001908
3790	0.0001944
3802	0.0003096
3814	0.0002556
3826	0.0001188
3838	0.000198
