Infrared Spectrum: 1-Benzosuberone
Formula: C 11 H 12 O
CAS: 826-73-3
State: gas
Instrument: HP-GC/MS/IRD
Origin: NIST Mass Spectrometry Data Center
1/CM	ABSORBANCE
550	0.0072828
562	0.0094095
574	0.0054315
586	0.0034272
598	0.0005967
610	3.06e-05
622	0.0011781
634	0.0028458
646	0.0017442
658	0.0006426
670	0.0007191
682	0.0018972
694	0.0024021
706	0.0024939
718	0.0066096
730	0.0167688
742	0.0246789
754	0.0346086
766	0.0302328
778	0.0116892
790	0.0032742
802	0.0011781
814	0.0015453
826	0.0042381
838	0.0055386
850	0.0018819
862	0.0021573
874	0.0021267
886	0.0011016
898	0.0017748
910	0.0025704
922	0.0024174
934	0.0032742
946	0.0075429
958	0.0129897
970	0.0089658
982	0.0023409
994	0.0006732
1006	0.0009945
1018	0.0046971
1030	0.0111231
1042	0.0074358
1054	0.0041004
1066	0.004131
1078	0.005508
1090	0.0091953
1102	0.0072981
1114	0.0019737
1126	0.00153
1138	0.0021573
1150	0.0040545
1162	0.0059211
1174	0.0083232
1186	0.0072981
1198	0.0069309
1210	0.0111231
1222	0.0151776
1234	0.0174726
1246	0.0350064
1258	0.0421974
1270	0.0283662
1282	0.03366
1294	0.0353889
1306	0.020502
1318	0.016677
1330	0.0132957
1342	0.011322
1354	0.0080172
1366	0.0031212
1378	0.0016371
1390	0.0017442
1402	0.0034272
1414	0.0075123
1426	0.0105264
1438	0.0167535
1450	0.0256275
1462	0.0220014
1474	0.0137241
1486	0.0077571
1498	0.0027846
1510	0.0016218
1522	0.0013617
1534	0.0012087
1546	0.0013311
1558	0.0018666
1570	0.002907
1582	0.0062577
1594	0.0157896
1606	0.0162486
1618	0.0066708
1630	0.005355
1642	0.0067014
1654	0.0090423
1666	0.0135558
1678	0.031518
1690	0.111491
1702	0.151638
1714	0.0533205
1726	0.0134487
1738	0.0070074
1750	0.0050337
1762	0.0038097
1774	0.0025398
1786	0.0017136
1798	0.0017595
1810	0.0023409
1822	0.001989
1834	0.0014841
1846	0.0012699
1858	0.0007191
1870	0.0004284
1882	0.0004896
1894	0.0007956
1906	0.0011322
1918	0.0017901
1930	0.0020043
1942	0.0014382
1954	0.0016065
1966	0.0008874
1978	0.0001683
1990	0.0001377
2002	0.0001377
2014	0.0001377
2026	9.18e-05
2038	1.53e-05
2050	3.06e-05
2062	1.53e-05
2074	4.59e-05
2086	3.06e-05
2098	7.65e-05
2110	0.0001071
2122	0.0001224
2134	9.18e-05
2146	0.0001071
2158	0.0001071
2170	0.0001071
2182	0.0001071
2194	6.12e-05
2206	6.12e-05
2218	9.18e-05
2230	0.0001683
2242	0.0002601
2254	0.0003213
2266	0.0002907
2278	0.0002754
2290	0.0002907
2302	0.0002907
2314	0.000459
2326	0.0005355
2338	0.0002601
2350	0.0002448
2362	0.0002295
2374	0.0002448
2386	0.0001683
2398	0.000153
2410	0.0001377
2422	0.0001224
2434	7.65e-05
2446	4.59e-05
2458	3.06e-05
2470	6.12e-05
2482	0.0001071
2494	0.0001071
2506	0.0001071
2518	0.000153
2530	0.0002448
2542	0.0002295
2554	0.0001989
2566	0.0001224
2578	9.18e-05
2590	9.18e-05
2602	0.0001836
2614	0.0002601
2626	0.0003672
2638	0.0004896
2650	0.000612
2662	0.0009027
2674	0.001224
2686	0.0012852
2698	0.0010098
2710	0.0007344
2722	0.0005508
2734	0.0005661
2746	0.0005814
2758	0.0007344
2770	0.0008568
2782	0.0011628
2794	0.00153
2806	0.0020349
2818	0.0027234
2830	0.0034731
2842	0.0057375
2854	0.0119952
2866	0.0251073
2878	0.0301257
2890	0.0210375
2902	0.0211752
2914	0.0268515
2926	0.0428553
2938	0.0949365
2950	0.114934
2962	0.0509184
2974	0.0194157
2986	0.0091035
2998	0.005814
3010	0.0070074
3022	0.0119187
3034	0.0119646
3046	0.0100368
3058	0.0158967
3070	0.0265302
3082	0.0190944
3094	0.0061047
3106	0.0029988
3118	0.0016065
3130	0.0015147
3142	0.0016524
3154	0.0011628
3166	0.0006885
3178	0.0004896
3190	0.0003978
3202	0.0003213
3214	0.0003366
3226	0.0001989
3238	0.0001989
3250	0.0001989
3262	0.000153
3274	0.0001683
3286	0.0002142
3298	0.0002142
3310	0.0002142
3322	0.0002142
3334	0.0003825
3346	0.0005508
3358	0.0010863
3370	0.0022032
3382	0.0026622
3394	0.0015453
3406	0.0008109
3418	0.0004896
3430	0.0003978
3442	0.000306
3454	0.0002142
3466	0.0001989
3478	0.0001836
3490	0.0002142
3502	0.0002448
3514	0.000153
3526	7.65e-05
3538	9.18e-05
3550	6.12e-05
3562	3.06e-05
3574	4.59e-05
3586	0.0001377
3598	7.65e-05
3610	7.65e-05
3622	0.0001071
3634	0.0001683
3646	0.000153
3658	0.000153
3670	0.0001683
3682	0.0002142
3694	0.0002448
3706	0.0002601
3718	0.0002295
3730	0.0001836
3742	0.0001836
3754	0.0003366
3766	0.0003519
3778	0.0003672
3790	0.0003366
3802	0.0003213
3814	0.0003672
3826	0.0004131
3838	0.0004743
