Infrared Spectrum: N,2,3,3-TETRAMETHYL-2-NORCAMPHANAMINE HYDROCHLORIDE
Formula: C11 H22 Cl N
CAS: 826-39-1
State: SOLID (NUJOL MULL)
Melting point: 245.5-246.5 C DECOMP.
Class: COBLENTZ III
Instrument: PERKIN-ELMER 521 (GRATING)
Instrument parameters: GRATING CHANGE AT 1996 CM^-^1
Sampling: TRANSMISSION
Resolution: 4
Origin: MERCK SHARPE & DOHME RESEARCH LABORATORIES, Nelson Trenner
1/CM	TRANSMITTANCE
598.487	0.544
607.563	0.573
616.639	0.606
625.716	0.629
634.792	0.657
643.868	0.691
652.944	0.711
662.02	0.732
671.096	0.755
680.173	0.765
689.249	0.769
698.325	0.746
707.401	0.718
716.477	0.668
725.554	0.6751
734.63	0.772
743.706	0.819
752.782	0.836
761.858	0.846
770.935	0.862
780.011	0.88
789.087	0.882
798.163	0.873
807.239	0.845
816.315	0.884
825.392	0.885
834.468	0.874
843.544	0.852
852.62	0.854
861.696	0.7682
870.773	0.6699
879.849	0.7021
888.925	0.6949
898.001	0.782
907.077	0.6639
916.153	0.824
925.23	0.813
934.306	0.796
943.382	0.7238
952.458	0.753
961.534	0.792
970.611	0.636
979.687	0.802
988.763	0.7401
997.839	0.669
1006.92	0.635
1015.99	0.73
1025.07	0.69
1034.14	0.57
1043.22	0.697
1052.3	0.654
1061.37	0.375
1070.45	0.316
1079.52	0.4809
1088.6	0.589
1097.68	0.373
1106.75	0.236
1115.83	0.5199
1124.91	0.739
1133.98	0.74
1143.06	0.573
1152.13	0.576
1161.21	0.756
1170.29	0.738
1179.36	0.77
1188.44	0.745
1197.52	0.651
1206.59	0.759
1215.67	0.751
1224.74	0.775
1233.82	0.79
1242.9	0.787
1251.97	0.787
1261.05	0.697
1270.12	0.759
1279.2	0.745
1288.28	0.645
1297.35	0.539
1306.43	0.678
1315.51	0.71
1324.58	0.634
1333.66	0.691
1342.73	0.671
1351.81	0.642
1360.89	0.555
1369.96	0.353
1379.04	0.287
1388.12	0.129
1397.19	0.2449
1406.27	0.567
1415.34	0.388
1424.42	0.219
1433.5	0.287
1442.57	0.296
1451.65	0.166
1460.72	0.099
1469.8	0.128
1478.88	0.108
1487.95	0.346
1497.03	0.378
1506.11	0.645
1515.18	0.742
1524.26	0.781
1533.33	0.785
1542.41	0.792
1551.49	0.801
1560.56	0.805
1569.64	0.805
1578.71	0.792
1587.79	0.5652
1596.87	0.315
1605.94	0.704
1615.02	0.778
1624.1	0.792
1633.17	0.792
1642.25	0.79
1651.32	0.789
1660.4	0.791
1669.48	0.802
1678.55	0.814
1687.63	0.83
1696.71	0.831
1705.78	0.833
1714.86	0.828
1723.93	0.826
1733.01	0.822
1742.09	0.814
1751.16	0.827
1760.24	0.835
1769.31	0.833
1778.39	0.83
1787.47	0.843
1796.54	0.847
1805.62	0.842
1814.7	0.833
1823.77	0.851
1832.85	0.859
1841.92	0.861
1851	0.862
1860.08	0.862
1869.15	0.862
1878.23	0.861
1887.31	0.861
1896.38	0.852
1905.46	0.849
1914.53	0.842
1923.61	0.851
1932.69	0.857
1941.76	0.86
1950.84	0.854
1959.91	0.85
1968.99	0.851
1978.07	0.852
1987.14	0.848
1996.22	0.826
2005.3	0.8132
2014.37	0.8567
2023.45	0.8723
2032.52	0.8791
2041.6	0.88
2050.68	0.8804
2059.75	0.879
2068.83	0.8818
2077.91	0.8771
2086.98	0.8679
2096.06	0.8566
2105.13	0.8478
2114.21	0.846
2123.29	0.8432
2132.36	0.8334
2141.44	0.8303
2150.51	0.8351
2159.59	0.8417
2168.67	0.8496
2177.74	0.8514
2186.82	0.8508
2195.9	0.8442
2204.97	0.8373
2214.05	0.838
2223.12	0.8368
2232.2	0.833
2241.28	0.831
2250.35	0.832
2259.43	0.8327
2268.51	0.8239
2277.58	0.8181
2286.66	0.8144
2295.73	0.8016
2304.81	0.7803
2313.89	0.7661
2322.96	0.7573
2332.04	0.75
2341.11	0.7455
2350.19	0.743
2359.27	0.7354
2368.34	0.7279
2377.42	0.7227
2386.5	0.7197
2395.57	0.7051
2404.65	0.6436
2413.72	0.6152
2422.8	0.6081
2431.88	0.5706
2440.95	0.45
2450.03	0.3493
2459.1	0.2719
2468.18	0.3356
2477.26	0.4398
2486.33	0.4336
2495.41	0.4193
2504.49	0.4615
2513.56	0.575
2522.64	0.611
2531.71	0.6048
2540.79	0.5905
2549.87	0.5742
2558.94	0.5541
2568.02	0.5316
2577.1	0.5072
2586.17	0.4929
2595.25	0.4838
2604.32	0.4662
2613.4	0.446
2622.48	0.4348
2631.55	0.4262
2640.63	0.4141
2649.7	0.3881
2658.78	0.342
2667.86	0.336
2676.93	0.2835
2686.01	0.246
2695.09	0.2109
2704.16	0.1747
2713.24	0.1442
2722.31	0.115
2731.39	0.084
2740.47	0.0639
2749.54	0.0561
2758.62	0.055
2767.7	0.0628
2776.77	0.0905
2785.85	0.1258
2794.92	0.138
2804	0.133
2813.08	0.1287
2822.15	0.125
2831.23	0.1182
2840.3	0.1041
2849.38	0.0656
2858.46	0.0309
2867.53	0.0281
2876.61	0.028
2885.69	0.027
2894.76	0.026
2903.84	0.024
2912.91	0.0213
2921.99	0.018
2931.07	0.018
2940.14	0.019
2949.22	0.0228
2958.3	0.0266
2967.37	0.028
2976.45	0.0311
2985.52	0.0397
2994.6	0.0586
3003.68	0.0834
3012.75	0.1236
3021.83	0.1588
3030.9	0.2201
3039.98	0.237
3049.06	0.3036
3058.13	0.3533
3067.21	0.3899
3076.29	0.4231
3085.36	0.4619
3094.44	0.5011
3103.51	0.5392
3112.59	0.5736
3121.67	0.6036
3130.74	0.6254
3139.82	0.631
3148.89	0.6654
3157.97	0.673
3167.05	0.675
3176.12	0.6606
3185.2	0.6262
3194.28	0.6451
3203.35	0.6744
3212.43	0.7007
3221.5	0.7247
3230.58	0.7307
3239.66	0.731
3248.73	0.732
3257.81	0.734
3266.89	0.734
3275.96	0.735
3285.04	0.736
3294.11	0.736
3303.19	0.737
3312.27	0.735
3321.34	0.733
3330.42	0.732
3339.49	0.733
3348.57	0.733
3357.65	0.733
3366.72	0.733
3375.8	0.733
3384.88	0.734
3393.95	0.7325
3403.03	0.731
3412.1	0.731
3421.18	0.731
3430.26	0.731
3439.33	0.731
3448.41	0.7363
3457.49	0.74
3466.56	0.7427
3475.64	0.7459
3484.71	0.7544
3493.79	0.759
3502.87	0.759
3511.94	0.759
3521.02	0.7613
3530.09	0.768
3539.17	0.771
3548.25	0.7726
3557.32	0.7764
3566.4	0.777
3575.48	0.777
3584.55	0.776
3593.63	0.7721
3602.7	0.77
3611.78	0.771
3620.86	0.7738
3629.93	0.775
3639.01	0.777
3648.09	0.7781
3657.16	0.779
3666.24	0.777
3675.31	0.7736
3684.39	0.7709
3693.47	0.768
3702.54	0.768
3711.62	0.771
3720.69	0.772
3729.77	0.77
3738.85	0.768
3747.92	0.7635
3757	0.7607
3766.08	0.759
3775.15	0.7582
3784.23	0.7564
3793.3	0.7546
3802.38	0.7529
3811.46	0.7511
3820.53	0.7503
3829.61	0.75
3838.69	0.75
3847.76	0.748
3856.84	0.742
3865.91	0.737
3874.99	0.735
3884.07	0.736
3893.14	0.737
3902.22	0.7396
3911.29	0.739
3920.37	0.7379
3929.45	0.7351
3938.52	0.7323
3947.6	0.7305
3956.68	0.7278
3965.75	0.725
3974.83	0.724
3983.9	0.7225
3992.98	0.722
