Infrared Spectrum: 2,2,6,6-Tetramethyl-4-piperidone
Formula: C 9 H 17 N O
CAS: 826-36-8
State: gas
Origin: EPA-IR VAPOR PHASE LIBRARY
1/CM	ABSORBANCE
549.8	0.00614
559.445	0.00468
569.09	0.00468
578.734	0.00541
588.379	0.00633
598.024	0.00706
607.669	0.00677
617.313	0.0065
626.958	0.00704
636.603	0.00756
646.248	0.00748
655.893	0.00745
665.537	0.00775
675.182	0.00731
684.827	0.00631
694.472	0.00509
704.116	0.00395
713.761	0.0032
723.406	0.00254
733.051	0.00208
742.695	0.00205
752.34	0.0017
761.985	0.00153
771.63	0.00144
781.275	0.00115
790.919	0.00143
800.564	0.00187
810.209	0.00229
819.854	0.00236
829.498	0.00214
839.143	0.00257
848.788	0.00357
858.433	0.00426
868.078	0.00365
877.722	0.00232
887.367	0.00142
897.012	0.00135
906.657	0.00162
916.301	0.00183
925.946	0.00191
935.591	0.00181
945.236	0.00166
954.88	0.0015
964.525	0.00128
974.17	0.00137
983.815	0.00172
993.46	0.00224
1003.1	0.00305
1012.75	0.00449
1022.39	0.00496
1032.04	0.00323
1041.68	0.00161
1051.33	0.00122
1060.97	0.00121
1070.62	0.0008049
1080.26	0.000701
1089.91	0.0009419
1099.55	0.00128
1109.2	0.00212
1118.84	0.00351
1128.49	0.00542
1138.13	0.00759
1147.78	0.00959
1157.42	0.01049
1167.07	0.01095
1176.71	0.01212
1186.36	0.01396
1196	0.01555
1205.64	0.02434
1215.29	0.04055
1224.93	0.04853
1234.58	0.04273
1244.22	0.03262
1253.87	0.02766
1263.51	0.02843
1273.16	0.03537
1282.8	0.05214
1292.45	0.05994
1302.09	0.03967
1311.74	0.01682
1321.38	0.00793
1331.03	0.00569
1340.67	0.00543
1350.32	0.00761
1359.96	0.01778
1369.61	0.03811
1379.25	0.0414
1388.9	0.03114
1398.54	0.01549
1408.18	0.01539
1417.83	0.01912
1427.47	0.01863
1437.12	0.01769
1446.76	0.01861
1456.41	0.01935
1466.05	0.01831
1475.7	0.01558
1485.34	0.01127
1494.99	0.00681
1504.63	0.00367
1514.28	0.00221
1523.92	0.00164
1533.57	0.00144
1543.21	0.00131
1552.86	0.00128
1562.5	0.00116
1572.15	0.00119
1581.79	0.00123
1591.44	0.00143
1601.08	0.0016
1610.73	0.00177
1620.37	0.00199
1630.01	0.00225
1639.66	0.0026
1649.3	0.00312
1658.95	0.00377
1668.59	0.00498
1678.24	0.00684
1687.88	0.01053
1697.53	0.01787
1707.17	0.03457
1716.82	0.07015
1726.46	0.11122
1736.11	0.10634
1745.75	0.05706
1755.4	0.02442
1765.04	0.01378
1774.69	0.00877
1784.33	0.0055
1793.98	0.00356
1803.62	0.00262
1813.27	0.00224
1822.91	0.00183
1832.55	0.00136
1842.2	0.00108
1851.84	0.0008247
1861.49	0.0007092
1871.13	0.0005809
1880.78	0.0005766
1890.42	0.0005603
1900.07	0.0005595
1909.71	0.0006413
1919.36	0.0006203
1929	0.0005655
1938.65	0.0004628
1948.29	0.00036
1957.94	0.0003481
1967.58	0.0003403
1977.23	0.0003552
1986.87	0.0002815
1996.52	0.0002661
2006.16	0.0002822
2015.81	0.000258
2025.45	0.0002411
2035.1	0.0003447
2044.74	0.0003407
2054.38	0.0003176
2064.03	0.00035
2073.67	0.0003851
2083.32	0.0003699
2092.96	0.0004625
2102.61	0.0005212
2112.25	0.0004892
2121.9	0.0005085
2131.54	0.0005854
2141.19	0.0006137
2150.83	0.0005475
2160.48	0.0005204
2170.12	0.0004899
2179.77	0.0003553
2189.41	0.0003516
2199.06	0.0003138
2208.7	0.0002638
2218.35	0.000228
2227.99	0.0002416
2237.64	0.0002434
2247.28	0.0003212
2256.92	0.0003145
2266.57	0.0003698
2276.21	0.0004283
2285.86	0.0004542
2295.5	0.0004759
2305.15	0.0003801
2314.79	0.0003742
2324.44	0.0003203
2334.08	0.0003364
2343.73	0.0003169
2353.37	0.0003425
2363.02	0.0003894
2372.66	0.0003397
2382.31	0.000312
2391.95	0.0002502
2401.6	0.0002551
2411.24	0.0003042
2420.89	0.0002466
2430.53	0.0002686
2440.18	0.0002047
2449.82	0.0002431
2459.47	0.0002399
2469.11	0.000251
2478.75	0.0002954
2488.4	0.0002631
2498.04	0.0003689
2507.69	0.0003954
2517.33	0.0003573
2526.98	0.000402
2536.62	0.0004438
2546.27	0.0003809
2555.91	0.000472
2565.56	0.0004623
2575.2	0.0004862
2584.85	0.0005201
2594.49	0.0004271
2604.14	0.000425
2613.78	0.0004773
2623.43	0.0004472
2633.07	0.0004444
2642.72	0.0004978
2652.36	0.0006381
2662.01	0.0006185
2671.65	0.0007151
2681.29	0.0007365
2690.94	0.0008366
2700.58	0.0008158
2710.23	0.00122
2719.87	0.00152
2729.52	0.00168
2739.16	0.0014
2748.81	0.00125
2758.45	0.00122
2768.1	0.00133
2777.74	0.00131
2787.39	0.00148
2797.03	0.00191
2806.68	0.00261
2816.32	0.00354
2825.97	0.00457
2835.61	0.00541
2845.26	0.00644
2854.9	0.00928
2864.55	0.01559
2874.19	0.02302
2883.84	0.02661
2893.48	0.02785
2903.12	0.03318
2912.77	0.04059
2922.41	0.04396
2932.06	0.04656
2941.7	0.04753
2951.35	0.05515
2960.99	0.09001
2970.64	0.12809
2980.28	0.10904
2989.93	0.0558
2999.57	0.02648
3009.22	0.01488
3018.86	0.00737
3028.51	0.00397
3038.15	0.00284
3047.8	0.00231
3057.44	0.00202
3067.09	0.00174
3076.73	0.00156
3086.38	0.00152
3096.02	0.00147
3105.67	0.00155
3115.31	0.00143
3124.95	0.00136
3134.6	0.00128
3144.24	0.00125
3153.89	0.00135
3163.53	0.00125
3173.18	0.0014
3182.82	0.00147
3192.47	0.00166
3202.11	0.00182
3211.76	0.00186
3221.4	0.00151
3231.05	0.00142
3240.69	0.00132
3250.34	0.0009368
3259.98	0.0008662
3269.63	0.0008593
3279.27	0.0008881
3288.92	0.0006713
3298.56	0.0007039
3308.21	0.0006475
3317.85	0.0006902
3327.49	0.000767
3337.14	0.0007837
3346.78	0.0009043
3356.43	0.0008542
3366.07	0.0007756
3375.72	0.0007913
3385.36	0.0006917
3395.01	0.0009013
3404.65	0.00106
3414.3	0.00119
3423.94	0.00182
3433.59	0.00215
3443.23	0.0021
3452.88	0.00186
3462.52	0.00161
3472.17	0.0009995
3481.81	0.0006835
3491.46	0.0005612
3501.1	0.0005965
3510.75	0.0006406
3520.39	0.0003919
3530.04	0.0003041
3539.68	0.0003181
3549.32	0.0001495
3558.97	9.844e-05
3568.61	7.114e-05
3578.26	0.0001202
3587.9	0.0002123
3597.55	0.0001268
3607.19	0.0003077
3616.84	0.000205
3626.48	0.0001727
3636.13	0.0001622
3645.77	0.0002981
3655.42	0.0001717
3665.06	0.0001679
3674.71	0.0003911
3684.35	0.0002423
3694	0.0001541
3703.64	0.0001531
3713.29	0.0004025
3722.93	0.0002527
3732.58	0.0002218
3742.22	0.0002625
3751.86	0.0002309
3761.51	0.0003266
3771.15	0.0002679
3780.8	0.0002322
3790.44	0.0002373
3800.09	0.0003407
3809.73	0.0003934
3819.38	0.0004178
3829.02	0.0003269
3838.67	0.0003779
3848.31	0.0002942
3857.96	0.0004093
3867.6	0.0003961
3877.25	0.0003687
3886.89	0.0004143
3896.54	0.0004737
3906.18	0.0004682
3915.83	0.0004469
3925.47	0.0004024
3935.12	0.0005995
3944.76	0.0005662
3954.41	0.0004749
3964.05	0.0004152
3973.69	0.0005336
3983.34	0.0005697
3992.98	0.0005391
