Infrared Spectrum: Benzene, 1,2-dibromo-3,4,5,6-tetrafluoro-,
Formula: C6 Br2 F4
CAS: 827-08-7
State: SOLUTION (11% CCl4 FOR 3800-1300, 10% CS2 FOR 1300-650, AND 11% CCl4 FOR 650-250)
Class: COBLENTZ III
Instrument: PERKIN-ELMER 521 (GRATING)
Instrument parameters: FILTERS AT 3150, 2500, 2000, 1150, 700, 410. GRATING CHANGES: 2000, 630
Path length: 0.012 CM, 0.011 CM, AND 0.009 CM
Resolution: 2
Origin: DOW CORNING CORP.
1/CM	TRANSMITTANCE
247	0.7246
256	0.7183
265	0.7165
274	0.7179
283	0.7194
292	0.7268
301	0.7567
310	0.7807
319	0.7904
328	0.7935
337	0.7816
346	0.7739
355	0.8084
364	0.8158
373	0.8127
382	0.8461
391	0.8602
400	0.8246
409	0.8721
418	0.8812
427	0.8881
436	0.891
445	0.9031
454	0.9223
463	0.928
472	0.9281
481	0.9376
490	0.9537
499	0.9486
508	0.9426
517	0.9399
526	0.9367
535	0.9325
544	0.929
553	0.9271
562	0.9279
571	0.9287
580	0.929
589	0.9295
598	0.9349
607	0.9262
616	0.9652
625	0.968
634	0.9076
643	0.9361
652	0.8948
661	0.8746
670	0.8787
679	0.8739
688	0.8664
697	0.8666
706	0.8629
715	0.8608
724	0.8651
733	0.861
742	0.8505
751	0.8464
760	0.8503
769	0.8502
778	0.8401
787	0.7953
796	0.5034
805	0.0391
814	0.7678
823	0.8112
832	0.8004
841	0.6518
850	0.0245
859	0.8284
868	0.8582
877	0.8576
886	0.8571
895	0.8603
904	0.8634
913	0.8631
922	0.8638
931	0.8556
940	0.8488
949	0.8522
958	0.8508
967	0.837
976	0.8302
985	0.8401
994	0.8444
1003	0.8218
1012	0.8093
1021	0.803
1030	0.4258
1039	0.3902
1048	0.7797
1057	0.8071
1066	0.8333
1075	0.8241
1084	0.786
1093	0.8174
1102	0.7705
1111	0.4857
1120	0.377
1129	0.767
1138	0.8431
1147	0.8628
1156	0.8558
1165	0.8566
1174	0.8576
1183	0.8579
1192	0.8538
1201	0.852
1210	0.8448
1219	0.8364
1228	0.8358
1237	0.836
1246	0.8274
1255	0.8088
1264	0.7111
1273	0.7796
1282	0.8353
1291	0.8375
1300	0.8438
1309	0.7837
1318	0.8669
1327	0.8584
1336	0.8381
1345	0.7896
1354	0.812
1363	0.8784
1372	0.8785
1381	0.8735
1390	0.8725
1399	0.8468
1408	0.8432
1417	0.8471
1426	0.8194
1435	0.7927
1444	0.74
1453	0.4846
1462	0
1471	0.2954
1480	0.4643
1489	0.1709
1498	0.0002
1507	0.0472
1516	0.6364
1525	0.6796
1534	0.6599
1543	0.7774
1552	0.8102
1561	0.8261
1570	0.7887
1579	0.8581
1588	0.8477
1597	0.8137
1606	0.729
1615	0.6276
1624	0.8498
1633	0.8616
1642	0.8727
1651	0.8621
1660	0.8834
1669	0.8906
1678	0.8882
1687	0.8818
1696	0.8897
1705	0.8902
1714	0.8915
1723	0.8916
1732	0.8915
1741	0.8952
1750	0.8974
1759	0.8976
1768	0.897
1777	0.8942
1786	0.8927
1795	0.8912
1804	0.8911
1813	0.8966
1822	0.8962
1831	0.894
1840	0.8904
1849	0.8908
1858	0.896
1867	0.8903
1876	0.8892
1885	0.899
1894	0.8978
1903	0.8959
1912	0.8954
1921	0.894
1930	0.8938
1939	0.8925
1948	0.8956
1957	0.8996
1966	0.897
1975	0.8889
1984	0.8992
1993	0.9007
2002	0.9009
2011	0.9009
2020	0.9008
2029	0.9008
2038	0.9007
2047	0.901
2056	0.9015
2065	0.9019
2074	0.9023
2083	0.9026
2092	0.9027
2101	0.9022
2110	0.9017
2119	0.901
2128	0.9001
2137	0.8985
2146	0.8977
2155	0.8989
2164	0.9005
2173	0.8944
2182	0.8904
2191	0.8901
2200	0.9
2209	0.9016
2218	0.902
2227	0.902
2236	0.9009
2245	0.8998
2254	0.8986
2263	0.8973
2272	0.896
2281	0.8944
2290	0.8928
2299	0.8902
2308	0.8936
2317	0.9007
2326	0.8996
2335	0.8982
2344	0.8976
2353	0.9002
2362	0.8993
2371	0.895
2380	0.8898
2389	0.8891
2398	0.8912
2407	0.8977
2416	0.8992
2425	0.8999
2434	0.9008
2443	0.9013
2452	0.8962
2461	0.893
2470	0.8993
2479	0.9022
2488	0.9002
2497	0.895
2506	0.8939
2515	0.8924
2524	0.8833
2533	0.8679
2542	0.8692
2551	0.8874
2560	0.8929
2569	0.8914
2578	0.8865
2587	0.8819
2596	0.8874
2605	0.8903
2614	0.8851
2623	0.8873
2632	0.8938
2641	0.8942
2650	0.8928
2659	0.8952
2668	0.9011
2677	0.9018
2686	0.9023
2695	0.9023
2704	0.9022
2713	0.8996
2722	0.8986
2731	0.9002
2740	0.9019
2749	0.9021
2758	0.9021
2767	0.9019
2776	0.9019
2785	0.9001
2794	0.8963
2803	0.8963
2812	0.899
2821	0.8984
2830	0.8971
2839	0.8955
2848	0.8938
2857	0.8919
2866	0.89
2875	0.8884
2884	0.8868
2893	0.8946
2902	0.8981
2911	0.8983
2920	0.8979
2929	0.8968
2938	0.8957
2947	0.8944
2956	0.8932
2965	0.8933
2974	0.8992
2983	0.899
2992	0.8974
3001	0.8959
3010	0.8979
3019	0.9005
3028	0.901
3037	0.8993
3046	0.8981
3055	0.901
3064	0.9013
3073	0.9015
3082	0.9013
3091	0.8991
3100	0.8948
3109	0.8959
3118	0.8987
3127	0.8987
3136	0.8981
3145	0.8975
3154	0.8989
3163	0.901
3172	0.906
3181	0.9087
3190	0.9095
3199	0.9101
3208	0.9105
3217	0.9109
3226	0.9111
3235	0.9112
3244	0.9113
3253	0.9114
3262	0.9113
3271	0.9111
3280	0.9109
3289	0.9101
3298	0.9089
3307	0.908
3316	0.9072
3325	0.9071
3334	0.9072
3343	0.9073
3352	0.907
3361	0.9066
3370	0.9066
3379	0.9071
3388	0.9077
3397	0.9083
3406	0.9089
3415	0.9095
3424	0.9096
3433	0.9089
3442	0.9083
3451	0.9076
3460	0.9077
3469	0.9079
3478	0.9082
3487	0.9083
3496	0.9085
3505	0.9087
3514	0.9084
3523	0.908
3532	0.9077
3541	0.9076
3550	0.9077
3559	0.9079
3568	0.9082
3577	0.9087
3586	0.9093
3595	0.9097
3604	0.9103
3613	0.9099
3622	0.9096
3631	0.9091
3640	0.9118
3649	0.9148
3658	0.9142
3667	0.9129
3676	0.9108
3685	0.9101
3694	0.9111
3703	0.9129
3712	0.9148
3721	0.9169
3730	0.9187
3739	0.9194
3748	0.9184
3757	0.9164
3766	0.9153
3775	0.9159
3784	0.9175
3793	0.9155
3802	0.9104
3811	0.9037
