Infrared Spectrum: 5-Amino-3-phenylpyrazole
Formula: C 9 H 9 N 3
CAS: 827-41-8
State: gas
Origin: EPA-IR VAPOR PHASE LIBRARY
1/CM	ABSORBANCE
549.9	0.003688
559.547	0.003628
569.193	0.003928
578.84	0.004178
588.486	0.004718
598.133	0.005198
607.779	0.006008
617.426	0.006608
627.072	0.006748
636.719	0.006208
646.365	0.006368
656.012	0.006138
665.658	0.005318
675.305	0.006778
684.951	0.009278
694.598	0.010548
704.245	0.008148
713.891	0.005578
723.538	0.004698
733.184	0.007798
742.831	0.014948
752.477	0.021808
762.124	0.015418
771.77	0.008468
781.417	0.005418
791.063	0.004668
800.71	0.004168
810.356	0.003858
820.003	0.003468
829.649	0.003408
839.296	0.003618
848.943	0.003928
858.589	0.004348
868.236	0.004478
877.882	0.004348
887.529	0.004268
897.175	0.004258
906.822	0.004128
916.468	0.003808
926.115	0.003538
935.761	0.003488
945.408	0.004338
955.054	0.005588
964.701	0.004888
974.347	0.003398
983.994	0.004978
993.64	0.004288
1003.29	0.002398
1012.93	0.002148
1022.58	0.002728
1032.23	0.002778
1041.87	0.002038
1051.52	0.002588
1061.17	0.003388
1070.81	0.003398
1080.46	0.003378
1090.11	0.004308
1099.75	0.004438
1109.4	0.003178
1119.05	0.002318
1128.69	0.001988
1138.34	0.001618
1147.99	0.001528
1157.63	0.001498
1167.28	0.001548
1176.92	0.001748
1186.57	0.0013467
1196.22	0.0011559
1205.86	0.001568
1215.51	0.0010281
1225.16	0.0011286
1234.8	0.0010822
1244.45	0.0011786
1254.1	0.0013389
1263.74	0.001958
1273.39	0.002228
1283.04	0.002818
1292.68	0.003368
1302.33	0.003448
1311.98	0.002428
1321.62	0.001378
1331.27	0.0011226
1340.92	0.0010967
1350.56	0.0011055
1360.21	0.0012221
1369.86	0.001468
1379.5	0.002018
1389.15	0.002908
1398.79	0.003588
1408.44	0.002898
1418.09	0.002728
1427.73	0.003528
1437.38	0.005578
1447.03	0.007358
1456.67	0.008828
1466.32	0.011348
1475.97	0.012428
1485.61	0.012648
1495.26	0.017978
1504.91	0.027878
1514.55	0.022408
1524.2	0.009478
1533.85	0.004738
1543.49	0.004188
1553.14	0.006138
1562.79	0.012898
1572.43	0.019008
1582.08	0.014988
1591.73	0.010988
1601.37	0.012298
1611.02	0.017378
1620.67	0.016268
1630.31	0.008698
1639.96	0.004198
1649.6	0.002638
1659.25	0.001958
1668.9	0.001578
1678.54	0.001348
1688.19	0.0012322
1697.84	0.0011911
1707.48	0.0011854
1717.13	0.0012878
1726.78	0.0012359
1736.42	0.0011338
1746.07	0.001026
1755.72	0.0009652
1765.36	0.0008109
1775.01	0.000802
1784.66	0.0008929
1794.3	0.0010263
1803.95	0.0009425
1813.6	0.0008424
1823.24	0.0007064
1832.89	0.0006637
1842.54	0.0006323
1852.18	0.0007504
1861.83	0.0008081
1871.47	0.0008951
1881.12	0.0009789
1890.77	0.0009111
1900.41	0.0006995
1910.06	0.0006197
1919.71	0.0006884
1929.35	0.0009034
1939	0.0009906
1948.65	0.0009961
1958.29	0.0009855
1967.94	0.0006389
1977.59	0.0004906
1987.23	0.0004854
1996.88	0.0004756
2006.53	0.0004637
2016.17	0.0004684
2025.82	0.0005113
2035.47	0.0004679
2045.11	0.000471
2054.76	0.0005035
2064.41	0.0005054
2074.05	0.0004481
2083.7	0.0004619
2093.35	0.00043832
2102.99	0.0004584
2112.64	0.0004692
2122.28	0.0005071
2131.93	0.0005232
2141.58	0.0004958
2151.22	0.0004987
2160.87	0.0004717
2170.52	0.00043838
2180.16	0.00041685
2189.81	0.0004654
2199.46	0.0004434
2209.1	0.0004579
2218.75	0.0004772
2228.4	0.0004758
2238.04	0.0005049
2247.69	0.000494
2257.34	0.0005025
2266.98	0.000492
2276.63	0.0004934
2286.28	0.000475
2295.92	0.0004513
2305.57	0.0004905
2315.22	0.0005392
2324.86	0.000505
2334.51	0.0005011
2344.16	0.0004736
2353.8	0.0004758
2363.45	0.0004583
2373.09	0.00040684
2382.74	0.00038202
2392.39	0.0003135
2402.03	0.0003044
2411.68	0.0002693
2421.33	0.0002767
2430.97	0.0002594
2440.62	0.0002909
2450.27	0.0003115
2459.91	0.0003182
2469.56	0.0003149
2479.21	0.0002841
2488.85	0.00034024
2498.5	0.0002964
2508.15	0.0002964
2517.79	0.0003204
2527.44	0.0002753
2537.09	0.0002649
2546.73	0.0003102
2556.38	0.0002913
2566.03	0.0003346
2575.67	0.0002988
2585.32	0.0003209
2594.96	0.000349211
2604.61	0.0003225
2614.26	0.000321
2623.9	0.0002891
2633.55	0.0003053
2643.2	0.0002679
2652.84	0.0003146
2662.49	0.0002965
2672.14	0.00033
2681.78	0.0002798
2691.43	0.000209
2701.08	0.000233
2710.72	0.0002773
2720.37	0.000278
2730.02	0.0002599
2739.66	0.000212
2749.31	0.000203
2758.96	0.0002542
2768.6	0.000213
2778.25	0.000208
2787.9	0.0002599
2797.54	0.000151
2807.19	0.00024
2816.84	0.00014
2826.48	0.000149
2836.13	9e-05
2845.77	5.1e-05
2855.42	0.000133
2865.07	0.0002936
2874.71	0.0002613
2884.36	0.0002711
2894.01	0.000204
2903.65	0.00013
2913.3	0.000137
2922.95	8e-05
2932.59	0.0003092
2942.24	0.000155
2951.89	0.000246
2961.53	0.000197
2971.18	0.000154
2980.83	0.000188
2990.47	0.0002616
3000.12	0.0004662
3009.77	0.0007365
3019.41	0.001568
3029.06	0.002658
3038.71	0.003288
3048.35	0.003718
3058	0.004488
3067.64	0.006638
3077.29	0.006548
3086.94	0.004288
3096.58	0.002748
3106.23	0.001538
3115.88	0.0010286
3125.52	0.0005874
3135.17	0.000336
3144.82	0.00038587
3154.46	0.000192
3164.11	0.0002519
3173.76	5.4e-05
3183.4	0.000209
3193.05	9.5e-05
3202.7	0.000134
3212.34	0.000104
3221.99	0.000199
3231.64	0.000173
3241.28	0.0002626
3250.93	0.0003248
3260.58	0.0002911
3270.22	0.000219
3279.87	0.000179
3289.52	0.000127
3299.16	0.000306
3308.81	0.000216
3318.45	0.000181
3328.1	0.00034056
3337.75	0.0002846
3347.39	0.00040448
3357.04	0.0002504
3366.69	0.0005892
3376.33	0.0007696
3385.98	0.001728
3395.63	0.002748
3405.27	0.002118
3414.92	0.0009023
3424.57	0.000942
3434.21	0.0008621
3443.86	0.0011415
3453.51	0.0013146
3463.15	0.002228
3472.8	0.003778
3482.45	0.005848
3492.09	0.008398
3501.74	0.011128
3511.39	0.010178
3521.03	0.006408
3530.68	0.003218
3540.33	0.001698
3549.97	0.0010377
3559.62	0.000752
3569.26	0.0007001
3578.91	0.0005089
3588.56	0.00034311
3598.2	0.00037752
3607.85	0.0003258
3617.5	0.00043022
3627.14	0.00040516
3636.79	0.0002713
3646.44	0.0002936
3656.08	0.0003262
3665.73	0.0003123
3675.38	0.0003181
3685.02	0.000235
3694.67	0.0002943
3704.32	0.0003133
3713.96	0.0002826
3723.61	0.0003849
3733.26	0.00041255
3742.9	0.0003138
3752.55	0.0003332
3762.2	0.000269
3771.84	0.000349058
3781.49	0.0002642
3791.13	0.0002912
3800.78	0.0002862
3810.43	0.00024
3820.07	0.000238
3829.72	0.000206
3839.37	0.000244
3849.01	0.0002701
3858.66	0.000237
3868.31	0.00040967
3877.95	0.0002811
3887.6	0.000222
3897.25	0.000308
3906.89	0.0003225
3916.54	0.00034239
3926.19	0.0002563
3935.83	0.0002891
3945.48	0.00024
3955.13	0.00038456
3964.77	0.0002969
3974.42	0.00037826
3984.07	0.00039108
3993.71	0.00043516
