Infrared Spectrum: Iodopentafluorobenzene
Formula: C 6 F 5 I
CAS: 827-15-6
State: gas
Instrument: HP-GC/MS/IRD
Origin: NIST Mass Spectrometry Data Center
1/CM	ABSORBANCE
550	0.0003634
562	0.0001817
574	0.0001501
586	0.0001264
598	0.0003318
610	0.000474
622	0.0004108
634	0.0001264
646	0.0002449
658	0.0001106
670	0.0002449
682	0.0003002
694	0.0003555
706	0.0003476
718	0.0004029
730	0.0003239
742	0.0003239
754	0.0004503
766	0.0007742
778	0.0011613
790	0.0033891
802	0.0166848
814	0.009954
826	0.001106
838	0.0005293
850	0.0004266
862	0.0003318
874	0.0003555
886	0.000395
898	0.0003713
910	0.0003476
922	0.0004503
934	0.0007821
946	0.0020461
958	0.0064148
970	0.0168349
982	0.0187072
994	0.0143306
1006	0.0155788
1018	0.0050402
1030	0.0015405
1042	0.0009559
1054	0.0018723
1066	0.0034049
1078	0.0128454
1090	0.0182411
1102	0.0049928
1114	0.0008295
1126	0.0006557
1138	0.0007426
1150	0.0013667
1162	0.00079
1174	0.000474
1186	0.0004029
1198	0.0004266
1210	0.000395
1222	0.0004108
1234	0.0004819
1246	0.000474
1258	0.0005293
1270	0.000711
1282	0.000869
1294	0.0006636
1306	0.0006557
1318	0.0009796
1330	0.0014062
1342	0.0008769
1354	0.0009559
1366	0.0017696
1378	0.0012798
1390	0.0007268
1402	0.0008374
1414	0.0011613
1426	0.0014062
1438	0.0017143
1450	0.0029309
1462	0.0068019
1474	0.0234393
1486	0.0638952
1498	0.0770566
1510	0.0580018
1522	0.0205084
1534	0.0058934
1546	0.0023937
1558	0.0019276
1570	0.0021172
1582	0.0020935
1594	0.0019276
1606	0.0011218
1618	0.0013667
1630	0.0023621
1642	0.0013351
1654	0.000632
1666	0.0007663
1678	0.0007268
1690	0.0005135
1702	0.0005609
1714	0.0005925
1726	0.0007031
1738	0.0005925
1750	0.0003476
1762	0.0003318
1774	0.0002923
1786	0.0003002
1798	0.000237
1810	0.0002291
1822	0.0002449
1834	0.0002607
1846	0.0002765
1858	0.0003713
1870	0.0003476
1882	0.000237
1894	0.0002212
1906	0.0002291
1918	0.0001817
1930	0.0002133
1942	0.0002291
1954	0.0003239
1966	0.0002449
1978	0.0002291
1990	0.0002528
2002	0.0002449
2014	0.0001975
2026	0.000158
2038	0.0001501
2050	0.0001817
2062	0.0002528
2074	0.0002923
2086	0.0002686
2098	0.0002291
2110	0.0001738
2122	0.0001975
2134	0.0001817
2146	0.0001738
2158	0.0001975
2170	0.0002133
2182	0.000158
2194	0.0001659
2206	0.000237
2218	0.000237
2230	0.0001738
2242	0.0001738
2254	0.0001501
2266	0.0001422
2278	0.0001896
2290	0.0002291
2302	0.0002449
2314	0.000237
2326	0.0001975
2338	0.0001738
2350	0.0001896
2362	0.0003318
2374	0.0004266
2386	0.000395
2398	0.0003397
2410	0.000316
2422	0.0003634
2434	0.0003792
2446	0.000237
2458	0.0001264
2470	0.0001501
2482	0.0002212
2494	0.0002054
2506	0.0002054
2518	0.0001975
2530	0.0001896
2542	0.0002607
2554	0.0003634
2566	0.0004819
2578	0.0004898
2590	0.0004108
2602	0.0002923
2614	0.0001817
2626	0.0002133
2638	0.0002528
2650	0.0002765
2662	0.0002291
2674	8.69e-05
2686	5.53e-05
2698	6.32e-05
2710	4.74e-05
2722	0.0001264
2734	0.0001027
2746	7.11e-05
2758	9.48e-05
2770	6.32e-05
2782	0.0001185
2794	5.53e-05
2806	2.37e-05
2818	7.9e-06
2830	1.58e-05
2842	1.58e-05
2854	3.95e-05
2866	0.0001185
2878	0.0001501
2890	0.0002528
2902	0.0002607
2914	0.0002449
2926	0.0001738
2938	4.74e-05
2950	3.95e-05
2962	3.16e-05
2974	7.11e-05
2986	6.32e-05
2998	0.0001027
3010	0.0001422
3022	0.000158
3034	7.9e-05
3046	9.48e-05
3058	3.95e-05
3070	4.74e-05
3082	3.95e-05
3094	7.11e-05
3106	0.0001343
3118	0.0001027
3130	6.32e-05
3142	0.0001422
3154	5.53e-05
3166	0.0001106
3178	5.53e-05
3190	0.0001264
3202	7.9e-05
3214	7.11e-05
3226	9.48e-05
3238	0.0001106
3250	0.0001027
3262	8.69e-05
3274	0.0001106
3286	7.9e-05
3298	0.0001106
3310	8.69e-05
3322	7.9e-05
3334	4.74e-05
3346	0.0001501
3358	0.0001106
3370	0.0001738
3382	0.0001264
3394	0.0001817
3406	0.000158
3418	0.000158
3430	0.0001264
3442	0.0001501
3454	0.0001501
3466	0.000158
3478	0.0001896
3490	0.0002133
3502	0.0001343
3514	0.0001738
3526	0.0001501
3538	0.0001343
3550	0.0001264
3562	0.000158
3574	0.0001975
3586	0.0001738
3598	0.0001264
3610	0.0001106
3622	0.0001738
3634	0.0001896
3646	0.000158
3658	0.0001343
3670	0.0001501
3682	0.000158
3694	0.0001817
3706	0.0002054
3718	0.0001659
3730	0.0001738
3742	0.0001738
3754	0.0001501
3766	0.0001659
3778	0.000158
3790	0.0001817
3802	0.0001975
3814	0.0002133
3826	0.0002054
3838	0.0002133
