Infrared Spectrum: .alpha.-(Dimethylamino)phenylacetonitrile
Formula: C 10 H 12 N 2
CAS: 827-36-1
State: gas
Origin: EPA-IR VAPOR PHASE LIBRARY
1/CM	ABSORBANCE
549.8	0.0005072
559.445	0.0005049
569.09	0.000323
578.734	0.0009013
588.379	0.0012154
598.024	0.001752
607.669	0.001772
617.313	0.0008351
626.958	0.0008938
636.603	0.0013869
646.248	0.002352
655.893	0.002562
665.537	0.002602
675.182	0.004062
684.827	0.008772
694.472	0.015972
704.116	0.013302
713.761	0.010782
723.406	0.010472
733.051	0.019112
742.695	0.014652
752.34	0.007322
761.985	0.003932
771.63	0.002742
781.275	0.001692
790.919	0.001391
800.564	0.0011808
810.209	0.001662
819.854	0.002392
829.498	0.003842
839.143	0.004012
848.788	0.004162
858.433	0.004472
868.078	0.002772
877.722	0.001922
887.367	0.001852
897.012	0.003432
906.657	0.006352
916.301	0.009502
925.946	0.007482
935.591	0.003442
945.236	0.002682
954.88	0.002242
964.525	0.002292
974.17	0.001962
983.815	0.002322
993.46	0.002942
1003.1	0.004832
1012.75	0.009912
1022.39	0.020952
1032.04	0.022842
1041.68	0.016002
1051.33	0.010102
1060.97	0.005392
1070.62	0.003532
1080.26	0.002462
1089.91	0.002852
1099.55	0.002992
1109.2	0.002052
1118.84	0.002302
1128.49	0.001732
1138.13	0.002352
1147.78	0.003412
1157.42	0.004892
1167.07	0.006592
1176.71	0.006862
1186.36	0.005312
1196	0.003922
1205.64	0.002022
1215.29	0.000939
1224.93	0.000878
1234.58	0.001872
1244.22	0.003252
1253.87	0.005952
1263.51	0.008752
1273.16	0.009712
1282.8	0.006862
1292.45	0.004642
1302.09	0.004292
1311.74	0.003892
1321.38	0.004992
1331.03	0.006262
1340.67	0.004612
1350.32	0.002732
1359.96	0.001962
1369.61	0.001862
1379.25	0.001952
1388.9	0.001762
1398.54	0.001642
1408.18	0.002022
1417.83	0.002282
1427.47	0.002922
1437.12	0.005912
1446.76	0.011672
1456.41	0.013262
1466.05	0.010622
1475.7	0.008312
1485.34	0.007502
1494.99	0.008012
1504.63	0.004862
1514.28	0.001882
1523.92	0.0014868
1533.57	0.0013294
1543.21	0.0012297
1552.86	0.0011146
1562.5	0.0011877
1572.15	0.0013986
1581.79	0.001892
1591.44	0.002202
1601.08	0.002452
1610.73	0.001952
1620.37	0.001542
1630.01	0.0012149
1639.66	0.0012843
1649.3	0.0014509
1658.95	0.001572
1668.59	0.0012918
1678.24	0.0011778
1687.88	0.0009919
1697.53	0.0010813
1707.17	0.0013255
1716.82	0.001742
1726.46	0.001732
1736.11	0.0013719
1745.75	0.0013778
1755.4	0.0012714
1765.04	0.0012383
1774.69	0.0010145
1784.33	0.001093
1793.98	0.001552
1803.62	0.001922
1813.27	0.001532
1822.91	0.0009446
1832.55	0.0008805
1842.2	0.0008435
1851.84	0.0009828
1861.49	0.0010836
1871.13	0.0013142
1880.78	0.001552
1890.42	0.001642
1900.07	0.001532
1909.71	0.0010132
1919.36	0.0009011
1929	0.0009245
1938.65	0.0013343
1948.29	0.001652
1957.94	0.001572
1967.58	0.0012603
1977.23	0.0008091
1986.87	0.0007719
1996.52	0.0008169
2006.16	0.0007442
2015.81	0.0006685
2025.45	0.0007332
2035.1	0.0006468
2044.74	0.0007626
2054.38	0.0007791
2064.03	0.0007253
2073.67	0.0006759
2083.32	0.0007878
2092.96	0.0008012
2102.61	0.0007885
2112.25	0.0007862
2121.9	0.00059743
2131.54	0.0007172
2141.19	0.0006912
2150.83	0.0006321
2160.48	0.0007491
2170.12	0.0006845
2179.77	0.0007276
2189.41	0.0008277
2199.06	0.0007612
2208.7	0.0007591
2218.35	0.0006989
2227.99	0.0007014
2237.64	0.0006691
2247.28	0.0006938
2256.92	0.0007176
2266.57	0.0007223
2276.21	0.0008061
2285.86	0.0007863
2295.5	0.0008259
2305.15	0.0007787
2314.79	0.0007789
2324.44	0.0008112
2334.08	0.0007864
2343.73	0.0007666
2353.37	0.0009457
2363.02	0.0007669
2372.66	0.0007092
2382.31	0.0007752
2391.95	0.0007055
2401.6	0.0006425
2411.24	0.000725
2420.89	0.0007238
2430.53	0.0007185
2440.18	0.0007025
2449.82	0.0007255
2459.47	0.0007642
2469.11	0.0007045
2478.75	0.000752
2488.4	0.000777
2498.04	0.0008215
2507.69	0.0009626
2517.33	0.000864
2526.98	0.000881
2536.62	0.0008371
2546.27	0.0008855
2555.91	0.0008518
2565.56	0.0009299
2575.2	0.0010076
2584.85	0.0009658
2594.49	0.0009685
2604.14	0.0009693
2613.78	0.0011021
2623.43	0.0010553
2633.07	0.0010671
2642.72	0.0010603
2652.36	0.0010606
2662.01	0.0012034
2671.65	0.0010496
2681.29	0.0011717
2690.94	0.0011059
2700.58	0.001367
2710.23	0.001662
2719.87	0.001902
2729.52	0.002122
2739.16	0.002182
2748.81	0.002292
2758.45	0.002972
2768.1	0.004212
2777.74	0.007392
2787.39	0.013132
2797.03	0.018662
2806.68	0.015702
2816.32	0.008702
2825.97	0.007352
2835.61	0.011902
2845.26	0.013862
2854.9	0.009832
2864.55	0.009402
2874.19	0.011642
2883.84	0.011692
2893.48	0.010132
2903.12	0.009912
2912.77	0.009882
2922.41	0.008372
2932.06	0.008142
2941.7	0.011892
2951.35	0.018592
2960.99	0.019122
2970.64	0.015352
2980.28	0.015182
2989.93	0.015292
2999.57	0.010212
3009.22	0.004412
3018.86	0.003892
3028.51	0.005892
3038.15	0.007932
3047.8	0.007112
3057.44	0.006822
3067.09	0.011152
3076.73	0.012242
3086.38	0.008012
3096.02	0.005632
3105.67	0.003742
3115.31	0.002632
3124.95	0.001722
3134.6	0.0012876
3144.24	0.001187
3153.89	0.0010816
3163.53	0.001015
3173.18	0.0011283
3182.82	0.0010539
3192.47	0.0009697
3202.11	0.0010895
3211.76	0.0009707
3221.4	0.0008261
3231.05	0.0009222
3240.69	0.0010566
3250.34	0.0009961
3259.98	0.0009909
3269.63	0.0009034
3279.27	0.0011248
3288.92	0.0009975
3298.56	0.0007525
3308.21	0.0007669
3317.85	0.0009069
3327.49	0.0010091
3337.14	0.0009859
3346.78	0.0008883
3356.43	0.0008866
3366.07	0.0008348
3375.72	0.00051484
3385.36	0.0006591
3395.01	0.00056636
3404.65	0.000691
3414.3	0.00060641
3423.94	0.00055197
3433.59	0.00054218
3443.23	0.0004874
3452.88	0.000347
3462.52	0.0008596
3472.17	0.0006909
3481.81	0.000419
3491.46	0.00058736
3501.1	0.0006692
3510.75	0.0004342
3520.39	0.00054401
3530.04	0.0006386
3539.68	0.0004973
3549.32	0.000316
3558.97	0.000416
3568.61	0.0005526
3578.26	0.00053205
3587.9	0.000245
3597.55	0.0004595
3607.19	0.000491
3616.84	0.00058108
3626.48	0.0006607
3636.13	0.000275
3645.77	0.00042
3655.42	0.0007976
3665.06	0.0004617
3674.71	0.0006305
3684.35	0.00060775
3694	0.0006597
3703.64	0.00062044
3713.29	0.00057653
3722.93	0.00061372
3732.58	0.000527838
3742.22	0.000522901
3751.86	0.000262
3761.51	0.000156
3771.15	0.000324
3780.8	0.000409
3790.44	0.0004454
3800.09	0.0004883
3809.73	0.0004998
3819.38	0.0004416
3829.02	0.0007019
3838.67	0.0005087
3848.31	0.0004498
3857.96	0.0004781
3867.6	0.0006357
3877.25	0.0007541
3886.89	0.0006268
3896.54	0.000523723
3906.18	0.00053842
3915.83	0.0006475
3925.47	0.000527868
3935.12	0.0007269
3944.76	0.0006511
3954.41	0.0006442
3964.05	0.0005496
3973.69	0.0006253
3983.34	0.0006614
3992.98	0.0007388
