Infrared Spectrum: 1-Adamantanecarboxylic acid
Formula: C 11 H 16 O 2
CAS: 828-51-3
State: gas
Instrument: HP-GC/MS/IRD
Origin: NIST Mass Spectrometry Data Center
1/CM	ABSORBANCE
550	0.0007696
562	0.0016692
574	0.002301
586	0.0018564
598	0.0013676
610	0.0012714
622	0.0007722
634	0.0021086
646	0.0029978
658	0.0007462
670	0.000117
682	4.68e-05
694	0.0001352
706	0.0006032
718	0.0006162
730	0.000442
742	0.0007982
754	0.000754
766	0.0005824
778	0.000286
790	0.0001872
802	7.02e-05
814	0.0001456
826	0.0001014
838	4.94e-05
850	6.24e-05
862	5.98e-05
874	5.72e-05
886	0.0001508
898	0.0001534
910	0.0001482
922	0.0002028
934	0.0003406
946	0.000273
958	0.0002834
970	0.000481
982	0.0005096
994	0.000351
1006	0.0003484
1018	0.0004758
1030	0.0009958
1042	0.00195
1054	0.0048802
1066	0.0058136
1078	0.002444
1090	0.0017498
1102	0.0017914
1114	0.001534
1126	0.0019578
1138	0.0037128
1150	0.007215
1162	0.007072
1174	0.0032864
1186	0.0019006
1198	0.0014664
1210	0.000741
1222	0.0003536
1234	0.0003302
1246	0.0004836
1258	0.000767
1270	0.001404
1282	0.002106
1294	0.0018954
1306	0.0007904
1318	0.0005668
1330	0.0006318
1342	0.0009802
1354	0.0010088
1366	0.0005356
1378	0.0003432
1390	0.0001742
1402	0.000143
1414	0.0001664
1426	0.000338
1438	0.0007306
1450	0.0021528
1462	0.0023946
1474	0.0008138
1486	0.0003016
1498	0.0001586
1510	0.0001014
1522	7.54e-05
1534	6.5e-05
1546	5.72e-05
1558	6.24e-05
1570	6.5e-05
1582	7.02e-05
1594	7.02e-05
1606	5.2e-05
1618	4.94e-05
1630	3.12e-05
1642	6.5e-05
1654	8.84e-05
1666	6.76e-05
1678	0.0001092
1690	0.0001612
1702	0.000351
1714	0.0008138
1726	0.0019058
1738	0.003679
1750	0.0075894
1762	0.0127894
1774	0.0093704
1786	0.0038558
1798	0.0016952
1810	0.0005356
1822	0.0002184
1834	0.0001222
1846	0.000104
1858	9.62e-05
1870	5.46e-05
1882	4.94e-05
1894	2.86e-05
1906	3.64e-05
1918	7.02e-05
1930	9.36e-05
1942	8.84e-05
1954	7.54e-05
1966	7.8e-06
1978	1.56e-05
1990	1.04e-05
2002	1.82e-05
2014	3.38e-05
2026	4.94e-05
2038	5.98e-05
2050	4.16e-05
2062	1.3e-05
2074	4.16e-05
2086	6.24e-05
2098	2.6e-05
2110	3.9e-05
2122	3.12e-05
2134	3.9e-05
2146	2.08e-05
2158	5.2e-06
2170	1.04e-05
2182	2.86e-05
2194	1.3e-05
2206	5.46e-05
2218	3.64e-05
2230	5.46e-05
2242	3.64e-05
2254	2.08e-05
2266	3.64e-05
2278	4.16e-05
2290	6.24e-05
2302	5.46e-05
2314	3.9e-05
2326	2.34e-05
2338	2.6e-05
2350	2.34e-05
2362	6.5e-05
2374	5.46e-05
2386	5.46e-05
2398	3.38e-05
2410	3.9e-05
2422	6.24e-05
2434	7.8e-05
2446	5.46e-05
2458	6.5e-05
2470	8.58e-05
2482	5.2e-05
2494	2.86e-05
2506	3.12e-05
2518	7.8e-05
2530	6.76e-05
2542	9.36e-05
2554	0.0001066
2566	9.1e-05
2578	8.84e-05
2590	9.1e-05
2602	0.0001014
2614	0.0001508
2626	0.0001898
2638	0.0002262
2650	0.0002652
2662	0.0003744
2674	0.000351
2686	0.0002886
2698	0.0001534
2710	9.1e-05
2722	0.0001352
2734	0.0001274
2746	0.0001794
2758	0.0001144
2770	0.0001352
2782	0.0002288
2794	0.0003042
2806	0.0004004
2818	0.0004524
2830	0.0005538
2842	0.001118
2854	0.0042536
2866	0.0061464
2878	0.0032266
2890	0.002496
2902	0.0080652
2914	0.0229502
2926	0.0229762
2938	0.0123292
2950	0.0070434
2962	0.0020462
2974	0.0006708
2986	0.0003328
2998	0.0002184
3010	0.0001924
3022	0.0001196
3034	5.46e-05
3046	0.00013
3058	8.58e-05
3070	0.0001092
3082	0.0001014
3094	0.0001144
3106	0.0001118
3118	0.000104
3130	0.0001482
3142	8.06e-05
3154	8.58e-05
3166	5.2e-05
3178	5.72e-05
3190	8.58e-05
3202	8.58e-05
3214	9.88e-05
3226	9.1e-05
3238	0.0001092
3250	0.0001404
3262	5.2e-05
3274	5.2e-05
3286	8.84e-05
3298	0.0001092
3310	0.0001066
3322	0.0001144
3334	3.12e-05
3346	8.84e-05
3358	4.16e-05
3370	0.0001118
3382	0.0001014
3394	0.00013
3406	0.0001586
3418	7.54e-05
3430	0.0001092
3442	8.84e-05
3454	0.0001196
3466	0.0001222
3478	7.8e-05
3490	0.0001638
3502	0.0001794
3514	0.0001664
3526	0.0001924
3538	0.0002496
3550	0.0004498
3562	0.0023842
3574	0.0050778
3586	0.001781
3598	0.0002626
3610	0.0001742
3622	0.0001326
3634	0.0001378
3646	5.98e-05
3658	8.32e-05
3670	8.58e-05
3682	8.06e-05
3694	0.0001222
3706	0.0001196
3718	0.0001092
3730	0.0001092
3742	0.0001742
3754	0.0001248
3766	9.1e-05
3778	7.8e-05
3790	9.62e-05
3802	0.000117
3814	0.0001378
3826	9.36e-05
3838	0.0001326
