Infrared Spectrum: (Pentafluorophenyl)hydrazine
Formula: C6 H3 F5 N2
CAS: 828-73-9
State: SOLID (SPLIT MULL)
Class: COBLENTZ II
Instrument: DOW KBr FOREPRISM-GRATING
Instrument parameters: BLAZED AT 3.5, 12.0, 20.0 MICRON AND CHANGED AT 5.0, 7.5, 14.9 MICRON
Sampling: TRANSMISSION
Resolution: 2
Origin: DOW CHEMICAL COMPANY
1/CM	TRANSMITTANCE
3800	0.8318
3791	0.8328
3782	0.8339
3773	0.8346
3764	0.8353
3755	0.836
3746	0.8366
3737	0.8367
3728	0.8367
3719	0.8362
3710	0.8355
3701	0.8328
3692	0.8311
3683	0.833
3674	0.8346
3665	0.8352
3656	0.8356
3647	0.8359
3638	0.8377
3629	0.8392
3620	0.8398
3611	0.8371
3602	0.8374
3593	0.837
3584	0.8318
3575	0.8328
3566	0.8341
3557	0.8342
3548	0.8343
3539	0.8342
3530	0.834
3521	0.8337
3512	0.8335
3503	0.8333
3494	0.8331
3485	0.8327
3476	0.832
3467	0.8312
3458	0.8284
3449	0.8242
3440	0.8233
3431	0.8233
3422	0.8221
3413	0.822
3404	0.8235
3395	0.8244
3386	0.8228
3377	0.8186
3368	0.8134
3359	0.7942
3350	0.4559
3341	0.6206
3332	0.739
3323	0.7392
3314	0.7315
3305	0.7121
3296	0.6811
3287	0.6188
3278	0.5801
3269	0.501
3260	0.3809
3251	0.3743
3242	0.4316
3233	0.4944
3224	0.5209
3215	0.5484
3206	0.601
3197	0.6798
3188	0.6915
3179	0.688
3170	0.6851
3161	0.6946
3152	0.7258
3143	0.7412
3134	0.7428
3125	0.7401
3116	0.7405
3107	0.7544
3098	0.768
3089	0.7754
3080	0.7711
3071	0.7599
3062	0.7585
3053	0.7708
3044	0.7886
3035	0.7938
3026	0.791
3017	0.7765
3008	0.7754
2999	0.7832
2990	0.7978
2981	0.8039
2972	0.8033
2963	0.7885
2954	0.7861
2945	0.7921
2936	0.7958
2927	0.7984
2918	0.8017
2909	0.8078
2900	0.8171
2891	0.8224
2882	0.8263
2873	0.8299
2864	0.8318
2855	0.8337
2846	0.8361
2837	0.8387
2828	0.8414
2819	0.8442
2810	0.8465
2801	0.8478
2792	0.8493
2783	0.8507
2774	0.852
2765	0.8533
2756	0.8546
2747	0.8556
2738	0.8567
2729	0.8577
2720	0.8586
2711	0.8595
2702	0.8602
2693	0.8608
2684	0.8614
2675	0.8618
2666	0.862
2657	0.8597
2648	0.8541
2639	0.856
2630	0.8599
2621	0.8606
2612	0.8603
2603	0.8578
2594	0.8578
2585	0.8596
2576	0.8615
2567	0.8631
2558	0.8638
2549	0.8644
2540	0.8651
2531	0.8651
2522	0.865
2513	0.865
2504	0.865
2495	0.8644
2486	0.8599
2477	0.8571
2468	0.8578
2459	0.8583
2450	0.8521
2441	0.8399
2432	0.8393
2423	0.8531
2414	0.8555
2405	0.8542
2396	0.8547
2387	0.8563
2378	0.8588
2369	0.861
2360	0.8632
2351	0.8656
2342	0.8681
2333	0.8706
2324	0.8728
2315	0.8725
2306	0.8595
2297	0.8574
2288	0.8566
2279	0.8561
2270	0.8559
2261	0.8556
2252	0.8556
2243	0.8568
2234	0.8612
2225	0.8654
2216	0.8689
2207	0.8708
2198	0.8721
2189	0.8725
2180	0.8732
2171	0.8734
2162	0.8736
2153	0.8738
2144	0.8741
2135	0.8743
2126	0.8737
2117	0.873
2108	0.8721
2099	0.8714
2090	0.8711
2081	0.8712
2072	0.8716
2063	0.8724
2054	0.8736
2045	0.875
2036	0.8787
2027	0.8836
2018	0.885
2009	0.8848
2000	0.8828
1991	0.8752
1982	0.8773
1973	0.8806
1964	0.8842
1955	0.8971
1946	0.8862
1937	0.8854
1928	0.8858
1919	0.8856
1910	0.8848
1901	0.8847
1892	0.8845
1883	0.8843
1874	0.884
1865	0.8837
1856	0.8843
1847	0.8854
1838	0.8861
1829	0.8862
1820	0.8858
1811	0.8851
1802	0.883
1793	0.881
1784	0.8793
1775	0.8762
1766	0.8686
1757	0.8638
1748	0.8633
1739	0.8621
1730	0.8499
1721	0.8521
1712	0.8607
1703	0.8648
1694	0.8655
1685	0.8657
1676	0.8635
1667	0.8381
1658	0.7924
1649	0.7715
1640	0.8157
1631	0.7611
1622	0.7775
1613	0.8165
1604	0.8144
1595	0.8183
1586	0.8145
1577	0.7997
1568	0.7969
1559	0.7671
1550	0.7171
1541	0.3534
1532	0.0665
1523	0.0711
1514	0.3174
1505	0.5158
1496	0.5418
1487	0.2892
1478	0.3256
1469	0.5449
1460	0.6684
1451	0.7197
1442	0.7176
1433	0.7687
1424	0.7907
1415	0.8062
1406	0.8198
1397	0.829
1388	0.8244
1379	0.8193
1370	0.826
1361	0.7543
1352	0.7988
1343	0.7864
1334	0.78
1325	0.7405
1316	0.5482
1307	0.6387
1298	0.7442
1289	0.7588
1280	0.744
1271	0.719
1262	0.7375
1253	0.7775
1244	0.7925
1235	0.7987
1226	0.8021
1217	0.8041
1208	0.8053
1199	0.8054
1190	0.8028
1181	0.7999
1172	0.7667
1163	0.7471
1154	0.7746
1145	0.7462
1136	0.4694
1127	0.4918
1118	0.6765
1109	0.7511
1100	0.7583
1091	0.7761
1082	0.7711
1073	0.7687
1064	0.7554
1055	0.7481
1046	0.6665
1037	0.6327
1028	0.2641
1019	0.5188
1010	0.3871
1001	0.4646
992	0.2522
983	0.4009
974	0.5722
965	0.6169
956	0.569
947	0.2759
938	0.3696
929	0.626
920	0.7524
911	0.7788
902	0.7871
893	0.789
884	0.7762
875	0.7522
866	0.7165
857	0.6057
848	0.4056
839	0.4617
830	0.5542
821	0.6803
812	0.7758
803	0.8162
794	0.8336
785	0.7334
776	0.8057
767	0.8377
758	0.8555
749	0.8591
740	0.8554
731	0.8438
722	0.7828
713	0.8534
704	0.8798
695	0.8924
686	0.8975
677	0.9037
668	0.9067
659	0.8678
650	0.887
641	0.8892
632	0.8875
623	0.8845
614	0.8817
605	0.7834
596	0.8542
587	0.8678
578	0.8654
569	0.784
560	0.8278
551	0.8437
542	0.8425
533	0.8414
524	0.8399
515	0.8371
506	0.829
497	0.8132
488	0.6971
479	0.7135
470	0.7799
461	0.7114
452	0.7437
443	0.7371
434	0.7585
425	0.7626
416	0.7622
407	0.7601
398	0.7572
389	0.7536
380	0.7498
