Infrared Spectrum: 4-(Trifluoromethoxy)phenol
Formula: C 7 H 5 F 3 O 2
CAS: 828-27-3
State: gas
Origin: EPA-IR VAPOR PHASE LIBRARY
1/CM	ABSORBANCE
549.8	0.004077
559.445	0.003647
569.09	0.004577
578.734	0.008667
588.379	0.015477
598.024	0.011397
607.669	0.003607
617.313	0.003617
626.958	0.002407
636.603	0.002777
646.248	0.004227
655.893	0.004387
665.537	0.005897
675.182	0.005737
684.827	0.004377
694.472	0.003287
704.116	0.003297
713.761	0.003977
723.406	0.004227
733.051	0.002417
742.695	0.0017509
752.34	0.003167
761.985	0.004357
771.63	0.013127
781.275	0.017047
790.919	0.007977
800.564	0.006477
810.209	0.010337
819.854	0.018857
829.498	0.024137
839.143	0.023457
848.788	0.015227
858.433	0.007937
868.078	0.004807
877.722	0.003567
887.367	0.002827
897.012	0.002497
906.657	0.003747
916.301	0.006707
925.946	0.007927
935.591	0.005777
945.236	0.004487
954.88	0.003417
964.525	0.003247
974.17	0.002787
983.815	0.002847
993.46	0.003457
1003.1	0.004287
1012.75	0.007317
1022.39	0.005117
1032.04	0.003087
1041.68	0.004237
1051.33	0.003707
1060.97	0.004007
1070.62	0.006467
1080.26	0.011087
1089.91	0.018497
1099.55	0.021427
1109.2	0.018397
1118.84	0.015927
1128.49	0.021227
1138.13	0.027377
1147.78	0.040787
1157.42	0.078197
1167.07	0.200407
1176.71	0.331047
1186.36	0.300487
1196	0.226657
1205.64	0.230927
1215.29	0.242697
1224.93	0.231967
1234.58	0.215337
1244.22	0.266767
1253.87	0.378287
1263.51	0.326547
1273.16	0.327017
1282.8	0.236687
1292.45	0.085217
1302.09	0.041367
1311.74	0.031287
1321.38	0.026777
1331.03	0.020997
1340.67	0.014427
1350.32	0.009197
1359.96	0.006057
1369.61	0.004867
1379.25	0.004037
1388.9	0.003847
1398.54	0.003827
1408.18	0.004457
1417.83	0.007117
1427.47	0.010857
1437.12	0.017367
1446.76	0.014917
1456.41	0.005877
1466.05	0.005027
1475.7	0.005977
1485.34	0.011617
1494.99	0.044107
1504.63	0.125727
1514.28	0.113277
1523.92	0.040407
1533.57	0.023897
1543.21	0.014127
1552.86	0.007837
1562.5	0.005887
1572.15	0.006207
1581.79	0.006747
1591.44	0.007377
1601.08	0.009597
1610.73	0.009827
1620.37	0.007357
1630.01	0.005757
1639.66	0.003987
1649.3	0.002737
1658.95	0.001987
1668.59	0.0016503
1678.24	0.0015782
1687.88	0.0014873
1697.53	0.0017515
1707.17	0.0016273
1716.82	0.0014268
1726.46	0.001877
1736.11	0.002377
1745.75	0.001937
1755.4	0.0018011
1765.04	0.0016883
1774.69	0.0013648
1784.33	0.0014864
1793.98	0.0016596
1803.62	0.0014999
1813.27	0.0015256
1822.91	0.0016103
1832.55	0.002197
1842.2	0.002527
1851.84	0.003387
1861.49	0.003867
1871.13	0.003887
1880.78	0.003427
1890.42	0.002577
1900.07	0.0018105
1909.71	0.0014293
1919.36	0.0010705
1929	0.0016069
1938.65	0.0015378
1948.29	0.0014843
1957.94	0.0013274
1967.58	0.001748
1977.23	0.0018381
1986.87	0.002077
1996.52	0.002227
2006.16	0.0018381
2015.81	0.001897
2025.45	0.002327
2035.1	0.002777
2044.74	0.003137
2054.38	0.003247
2064.03	0.002627
2073.67	0.002127
2083.32	0.002067
2092.96	0.001957
2102.61	0.001977
2112.25	0.001937
2121.9	0.0017554
2131.54	0.001783
2141.19	0.002017
2150.83	0.0017956
2160.48	0.0016379
2170.12	0.0013666
2179.77	0.0016133
2189.41	0.0016418
2199.06	0.0014436
2208.7	0.0012704
2218.35	0.00094683
2227.99	0.00091818
2237.64	0.00095216
2247.28	0.0011504
2256.92	0.0013422
2266.57	0.0011559
2276.21	0.0012081
2285.86	0.0008158
2295.5	0.001272
2305.15	0.0012571
2314.79	0.0014212
2324.44	0.0017245
2334.08	0.002047
2343.73	0.002297
2353.37	0.002117
2363.02	0.001997
2372.66	0.002057
2382.31	0.001997
2391.95	0.002487
2401.6	0.002717
2411.24	0.002747
2420.89	0.003247
2430.53	0.004197
2440.18	0.003637
2449.82	0.003427
2459.47	0.003077
2469.11	0.002817
2478.75	0.002747
2488.4	0.003217
2498.04	0.003367
2507.69	0.003167
2517.33	0.003107
2526.98	0.002607
2536.62	0.002157
2546.27	0.002027
2555.91	0.0015812
2565.56	0.0012803
2575.2	0.0012674
2584.85	0.00095164
2594.49	0.0012523
2604.14	0.0011587
2613.78	0.0010401
2623.43	0.0012628
2633.07	0.0009809
2642.72	0.001158
2652.36	0.001204
2662.01	0.0012591
2671.65	0.0010128
2681.29	0.00089205
2690.94	0.0011703
2700.58	0.0011974
2710.23	0.0015888
2719.87	0.0008316
2729.52	0.0008557
2739.16	0.0010294
2748.81	0.00091869
2758.45	0.0012058
2768.1	0.0011405
2777.74	0.0014257
2787.39	0.0012779
2797.03	0.0011542
2806.68	0.00089649
2816.32	0.0012682
2825.97	0.000536
2835.61	0.000748
2845.26	0.0011159
2854.9	0.000755
2864.55	0.0014489
2874.19	0.0013576
2883.84	0.00095602
2893.48	0.0011845
2903.12	0.0010614
2912.77	0.000597
2922.41	0.000665
2932.06	0.0011246
2941.7	0.0009894
2951.35	0.000737
2960.99	0.00088766
2970.64	0.000697
2980.28	0.000601
2989.93	0.0012292
2999.57	0.000719
3009.22	0.001794
3018.86	0.003397
3028.51	0.005057
3038.15	0.006327
3047.8	0.005667
3057.44	0.004317
3067.09	0.003057
3076.73	0.001917
3086.38	0.002507
3096.02	0.001499
3105.67	0.0018568
3115.31	0.0016653
3124.95	0.001927
3134.6	0.0014075
3144.24	0.0008499
3153.89	0.0008492
3163.53	0.00094932
3173.18	0.000616
3182.82	0.000784
3192.47	0.0008397
3202.11	0.0008542
3211.76	0.0009953
3221.4	0.0010291
3231.05	0.00075
3240.69	0.0014895
3250.34	0.00093975
3259.98	0.0010249
3269.63	0.0013085
3279.27	0.00034
3288.92	0.000996
3298.56	0.000529
3308.21	0.000521
3317.85	0.00089091
3327.49	0.000634
3337.14	0.000172
3346.78	0.0014088
3356.43	0.001746
3366.07	0.00094357
3375.72	0.0014482
3385.36	0.0010252
3395.01	0.0013032
3404.65	0.0010768
3414.3	0.001272
3423.94	0.0012577
3433.59	0.0008584
3443.23	0.000515
3452.88	0.000467
3462.52	0.00092331
3472.17	0.00095934
3481.81	0.0008288
3491.46	0.000658
3501.1	0.00091536
3510.75	0.000403
3520.39	0.000491
3530.04	0.000271
3539.68	0.00063
3549.32	0.000371
3558.97	0.0009223
3568.61	0.00053
3578.26	0.0014659
3587.9	0.0010028
3597.55	0.00090556
3607.19	0.0014109
3616.84	0.002307
3626.48	0.004287
3636.13	0.011357
3645.77	0.036857
3655.42	0.047817
3665.06	0.017737
3674.71	0.004037
3684.35	0.0013897
3694	0.0008144
3703.64	0.0009892
3713.29	0.0012478
3722.93	0.000447
3732.58	0.001093
3742.22	0.000679
3751.86	0.00096383
3761.51	0.000596
3771.15	0.000767
3780.8	0.000691
3790.44	0.00094403
3800.09	0.000732
3809.73	0.000421
3819.38	0.001597
3829.02	0.00095031
3838.67	0.00092513
3848.31	0.001257
3857.96	0.0014587
3867.6	0.0011286
3877.25	0.0017389
3886.89	0.0010857
3896.54	0.000758
3906.18	0.0008163
3915.83	0.0010068
3925.47	0.00093015
3935.12	0.000654
3944.76	0.0008086
3954.41	0.0007991
3964.05	0.0013282
3973.69	0.000279
3983.34	0.0008157
3992.98	0.000642
