Infrared Spectrum: 1,4-Dimethoxy-2-fluorobenzene
Formula: C 8 H 9 F O 2
CAS: 82830-49-7
State: gas
Origin: EPA-IR VAPOR PHASE LIBRARY
1/CM	ABSORBANCE
549.8	0.002307
559.445	0.002867
569.09	0.003697
578.734	0.003297
588.379	0.004147
598.024	0.007237
607.669	0.007677
617.313	0.008707
626.958	0.008437
636.603	0.006707
646.248	0.004417
655.893	0.003587
665.537	0.002937
675.182	0.002847
684.827	0.002747
694.472	0.006007
704.116	0.015437
713.761	0.022157
723.406	0.015437
733.051	0.007637
742.695	0.010487
752.34	0.023737
761.985	0.029737
771.63	0.016517
781.275	0.010877
790.919	0.014107
800.564	0.017827
810.209	0.018087
819.854	0.016747
829.498	0.020647
839.143	0.024947
848.788	0.028317
858.433	0.024037
868.078	0.012647
877.722	0.005947
887.367	0.003607
897.012	0.003917
906.657	0.004667
916.301	0.006837
925.946	0.013307
935.591	0.027077
945.236	0.029957
954.88	0.019957
964.525	0.011877
974.17	0.010927
983.815	0.012277
993.46	0.016917
1003.1	0.026017
1012.75	0.043007
1022.39	0.063367
1032.04	0.095367
1041.68	0.110707
1051.33	0.072207
1060.97	0.029307
1070.62	0.015737
1080.26	0.011857
1089.91	0.013887
1099.55	0.022697
1109.2	0.034347
1118.84	0.038907
1128.49	0.038557
1138.13	0.050127
1147.78	0.105357
1157.42	0.122267
1167.07	0.070377
1176.71	0.054297
1186.36	0.062507
1196	0.066337
1205.64	0.078447
1215.29	0.121777
1224.93	0.147617
1234.58	0.097727
1244.22	0.078097
1253.87	0.141527
1263.51	0.184007
1273.16	0.123207
1282.8	0.062267
1292.45	0.042207
1302.09	0.035217
1311.74	0.031347
1321.38	0.025847
1331.03	0.018107
1340.67	0.011827
1350.32	0.008867
1359.96	0.007887
1369.61	0.007227
1379.25	0.006867
1388.9	0.007987
1398.54	0.010437
1408.18	0.016457
1417.83	0.026847
1427.47	0.037457
1437.12	0.050057
1446.76	0.059187
1456.41	0.057397
1466.05	0.058717
1475.7	0.053737
1485.34	0.053357
1494.99	0.104387
1504.63	0.277417
1514.28	0.374737
1523.92	0.193127
1533.57	0.058777
1543.21	0.031577
1552.86	0.022737
1562.5	0.020817
1572.15	0.025417
1581.79	0.036427
1591.44	0.041777
1601.08	0.032727
1610.73	0.024247
1620.37	0.021457
1630.01	0.016777
1639.66	0.011537
1649.3	0.008507
1658.95	0.007097
1668.59	0.005877
1678.24	0.005007
1687.88	0.004877
1697.53	0.004787
1707.17	0.004927
1716.82	0.004077
1726.46	0.003667
1736.11	0.003247
1745.75	0.003147
1755.4	0.002867
1765.04	0.003007
1774.69	0.002537
1784.33	0.002427
1793.98	0.002557
1803.62	0.002877
1813.27	0.003167
1822.91	0.003567
1832.55	0.003467
1842.2	0.003627
1851.84	0.003707
1861.49	0.004267
1871.13	0.004077
1880.78	0.002987
1890.42	0.002507
1900.07	0.002137
1909.71	0.002137
1919.36	0.002207
1929	0.001867
1938.65	0.002177
1948.29	0.002157
1957.94	0.002257
1967.58	0.003087
1977.23	0.003607
1986.87	0.003717
1996.52	0.004127
2006.16	0.004747
2015.81	0.005897
2025.45	0.006387
2035.1	0.005587
2044.74	0.005167
2054.38	0.005157
2064.03	0.004847
2073.67	0.004327
2083.32	0.003467
2092.96	0.002627
2102.61	0.001897
2112.25	0.001697
2121.9	0.0014756
2131.54	0.001487
2141.19	0.001577
2150.83	0.002167
2160.48	0.002267
2170.12	0.002097
2179.77	0.002327
2189.41	0.002867
2199.06	0.002557
2208.7	0.002697
2218.35	0.002457
2227.99	0.002117
2237.64	0.002327
2247.28	0.002177
2256.92	0.002497
2266.57	0.002947
2276.21	0.002887
2285.86	0.002517
2295.5	0.002147
2305.15	0.002007
2314.79	0.002147
2324.44	0.002247
2334.08	0.002487
2343.73	0.002287
2353.37	0.002077
2363.02	0.002467
2372.66	0.002097
2382.31	0.002407
2391.95	0.002097
2401.6	0.001767
2411.24	0.001987
2420.89	0.001987
2430.53	0.001857
2440.18	0.002037
2449.82	0.001867
2459.47	0.002207
2469.11	0.001997
2478.75	0.002157
2488.4	0.001967
2498.04	0.002047
2507.69	0.002087
2517.33	0.002767
2526.98	0.002587
2536.62	0.002887
2546.27	0.002767
2555.91	0.002817
2565.56	0.002747
2575.2	0.002607
2584.85	0.002757
2594.49	0.002487
2604.14	0.002607
2613.78	0.002567
2623.43	0.001787
2633.07	0.0013343
2642.72	0.001807
2652.36	0.002227
2662.01	0.002177
2671.65	0.0014609
2681.29	0.001897
2690.94	0.001567
2700.58	0.001947
2710.23	0.001707
2719.87	0.001827
2729.52	0.001817
2739.16	0.002227
2748.81	0.002747
2758.45	0.002257
2768.1	0.002727
2777.74	0.003627
2787.39	0.004527
2797.03	0.005367
2806.68	0.007427
2816.32	0.010127
2825.97	0.016237
2835.61	0.031227
2845.26	0.040937
2854.9	0.029377
2864.55	0.019317
2874.19	0.017667
2883.84	0.018377
2893.48	0.020717
2903.12	0.025917
2912.77	0.032627
2922.41	0.037947
2932.06	0.044707
2941.7	0.059047
2951.35	0.060227
2960.99	0.049777
2970.64	0.037917
2980.28	0.030157
2989.93	0.029707
2999.57	0.041747
3009.22	0.049007
3018.86	0.030967
3028.51	0.015507
3038.15	0.011767
3047.8	0.012227
3057.44	0.012247
3067.09	0.011437
3076.73	0.009697
3086.38	0.008687
3096.02	0.007557
3105.67	0.005907
3115.31	0.004917
3124.95	0.003517
3134.6	0.003377
3144.24	0.002887
3153.89	0.002227
3163.53	0.002397
3173.18	0.002037
3182.82	0.002027
3192.47	0.001607
3202.11	0.002047
3211.76	0.0011066
3221.4	0.0012065
3231.05	0.0013609
3240.69	0.0010547
3250.34	0.0007425
3259.98	0.000855
3269.63	0.0009287
3279.27	0.0006853
3288.92	0.001106
3298.56	0.0009086
3308.21	0.000736
3317.85	0.0006061
3327.49	0.00050859
3337.14	0.0007262
3346.78	0.000937
3356.43	0.0008451
3366.07	0.0007656
3375.72	0.00050163
3385.36	0.0009749
3395.01	0.0010926
3404.65	0.0008543
3414.3	0.00051166
3423.94	0.0008898
3433.59	0.0006082
3443.23	0.0009004
3452.88	0.0006564
3462.52	0.0014298
3472.17	0.0010951
3481.81	0.0010479
3491.46	0.000769
3501.1	0.0006859
3510.75	0.00026
3520.39	0.0007843
3530.04	0.0010099
3539.68	0.00056518
3549.32	0.0010454
3558.97	0.0008259
3568.61	0.001617
3578.26	0.001507
3587.9	0.0009794
3597.55	0.00022
3607.19	0.00105
3616.84	0.0004571
3626.48	0.0004475
3636.13	0.0007342
3645.77	0.00055159
3655.42	0.0005342
3665.06	0.0010821
3674.71	0.0010541
3684.35	0.0007743
3694	0.00051413
3703.64	0.0013232
3713.29	0.0008879
3722.93	0.0006688
3732.58	0.0008658
3742.22	0.0006992
3751.86	0.0013059
3761.51	0.0005979
3771.15	0.0010204
3780.8	0.0006367
3790.44	0.0009962
3800.09	0.0014265
3809.73	0.0010505
3819.38	0.0011021
3829.02	0.0009735
3838.67	0.001051
3848.31	0.0008088
3857.96	0.00056545
3867.6	0.0011174
3877.25	0.0011972
3886.89	0.0013449
3896.54	0.0013477
3906.18	0.0006441
3915.83	0.000196
3925.47	0.0012199
3935.12	0.0012714
3944.76	0.0008386
3954.41	0.000294
3964.05	0.001517
3973.69	0.0013078
3983.34	0.0013713
3992.98	0.000354
