Infrared Spectrum: 3-Bromo-2,4,6-trimethylaniline
Formula: C 9 H 12 Br N
CAS: 82842-52-2
State: gas
Origin: EPA-IR VAPOR PHASE LIBRARY
1/CM	ABSORBANCE
549.8	0.012304
559.445	0.011094
569.09	0.011354
578.735	0.011174
588.38	0.010884
598.025	0.011174
607.67	0.011844
617.315	0.012694
626.96	0.013464
636.605	0.014684
646.251	0.015284
655.896	0.015814
665.541	0.016384
675.186	0.017054
684.831	0.016584
694.476	0.015484
704.121	0.014734
713.766	0.014674
723.411	0.015894
733.056	0.015364
742.701	0.013214
752.346	0.012094
761.991	0.011614
771.636	0.012094
781.281	0.013884
790.926	0.015194
800.571	0.010364
810.216	0.006724
819.861	0.006464
829.507	0.006264
839.152	0.006484
848.797	0.009974
858.442	0.017154
868.087	0.014514
877.732	0.008064
887.377	0.006314
897.022	0.006654
906.667	0.007194
916.312	0.007734
925.957	0.006924
935.602	0.006944
945.247	0.008984
954.892	0.013744
964.537	0.027674
974.182	0.054554
983.827	0.039284
993.472	0.013254
1003.12	0.015544
1012.76	0.020094
1022.41	0.017324
1032.05	0.011554
1041.7	0.007504
1051.34	0.005784
1060.99	0.004804
1070.63	0.004374
1080.28	0.004014
1089.92	0.003854
1099.57	0.003764
1109.21	0.003784
1118.86	0.003804
1128.5	0.004374
1138.15	0.007854
1147.79	0.010734
1157.44	0.006914
1167.08	0.004534
1176.73	0.005774
1186.37	0.009824
1196.02	0.009924
1205.66	0.006214
1215.31	0.004424
1224.95	0.003644
1234.6	0.004414
1244.24	0.008434
1253.89	0.016004
1263.53	0.017084
1273.18	0.012334
1282.82	0.011004
1292.47	0.011824
1302.11	0.017274
1311.76	0.014544
1321.4	0.006974
1331.05	0.004874
1340.69	0.003784
1350.34	0.003524
1359.98	0.003914
1369.63	0.005594
1379.27	0.010254
1388.92	0.012564
1398.56	0.011284
1408.21	0.011384
1417.85	0.018074
1427.5	0.039374
1437.14	0.061024
1446.79	0.059634
1456.43	0.055804
1466.08	0.063174
1475.73	0.054904
1485.37	0.029864
1495.02	0.015884
1504.66	0.011114
1514.31	0.009204
1523.95	0.008174
1533.6	0.007334
1543.24	0.006874
1552.89	0.006814
1562.53	0.007554
1572.18	0.008774
1581.82	0.010464
1591.47	0.013174
1601.11	0.017174
1610.76	0.027484
1620.4	0.046794
1630.05	0.050864
1639.69	0.031974
1649.34	0.016604
1658.98	0.009404
1668.63	0.006014
1678.27	0.004454
1687.92	0.003714
1697.56	0.003364
1707.21	0.003724
1716.85	0.004184
1726.5	0.003674
1736.14	0.002684
1745.79	0.002354
1755.43	0.002084
1765.08	0.001794
1774.72	0.0016038
1784.37	0.0014415
1794.01	0.0013555
1803.66	0.0013054
1813.3	0.0012515
1822.95	0.0012121
1832.59	0.001264
1842.24	0.0012006
1851.88	0.0012588
1861.53	0.0013569
1871.17	0.0013094
1880.82	0.0015044
1890.46	0.0016429
1900.11	0.00158
1909.75	0.001357
1919.4	0.0012165
1929.04	0.0011962
1938.69	0.0011817
1948.33	0.0012316
1957.98	0.0012389
1967.62	0.0010814
1977.27	0.0011633
1986.91	0.0011372
1996.56	0.0011275
2006.2	0.0009802
2015.85	0.000971
2025.49	0.0010815
2035.14	0.0009906
2044.78	0.0010608
2054.43	0.0010303
2064.07	0.0010759
2073.72	0.0010762
2083.36	0.0009874
2093.01	0.0010365
2102.65	0.0009857
2112.3	0.000827
2121.94	0.000764
2131.59	0.0007655
2141.23	0.0008087
2150.88	0.0008316
2160.52	0.0008707
2170.17	0.0009054
2179.81	0.0009465
2189.46	0.0008199
2199.1	0.0009307
2208.75	0.00074202
2218.39	0.0008864
2228.04	0.0009244
2237.68	0.0008845
2247.33	0.0007915
2256.97	0.0007364
2266.62	0.00069063
2276.26	0.00071204
2285.91	0.0007581
2295.55	0.0008685
2305.2	0.0007734
2314.84	0.00071078
2324.49	0.00073092
2334.13	0.00069849
2343.78	0.0007575
2353.42	0.0007711
2363.07	0.0008948
2372.72	0.0008608
2382.36	0.0008754
2392.01	0.0009067
2401.65	0.0010011
2411.3	0.0010689
2420.94	0.0009098
2430.59	0.0009266
2440.23	0.000891
2449.88	0.0009061
2459.52	0.0008266
2469.17	0.0009069
2478.81	0.0010092
2488.46	0.000971
2498.1	0.000911
2507.75	0.0008791
2517.39	0.0009823
2527.04	0.0009781
2536.68	0.0010674
2546.33	0.0011321
2555.97	0.0011798
2565.62	0.0011526
2575.26	0.0010528
2584.91	0.0010026
2594.55	0.000906
2604.2	0.0009297
2613.84	0.00079
2623.49	0.000859
2633.13	0.00076052
2642.78	0.0008963
2652.42	0.0009763
2662.07	0.0008852
2671.71	0.0010175
2681.36	0.0010357
2691	0.001094
2700.65	0.0011722
2710.29	0.0013108
2719.94	0.0015614
2729.58	0.002264
2739.23	0.003754
2748.87	0.003964
2758.52	0.002824
2768.16	0.002074
2777.81	0.002104
2787.45	0.002114
2797.1	0.002284
2806.74	0.002804
2816.39	0.003584
2826.03	0.004854
2835.68	0.006634
2845.32	0.009424
2854.97	0.014674
2864.61	0.024364
2874.26	0.030834
2883.9	0.026824
2893.55	0.023074
2903.19	0.027014
2912.84	0.036194
2922.48	0.045384
2932.13	0.052164
2941.77	0.045824
2951.42	0.030594
2961.06	0.024564
2970.71	0.024424
2980.35	0.025374
2990	0.020184
2999.64	0.016074
3009.29	0.018854
3018.93	0.020004
3028.58	0.015474
3038.22	0.011344
3047.87	0.008674
3057.51	0.006874
3067.16	0.005694
3076.8	0.004674
3086.45	0.004024
3096.09	0.003364
3105.74	0.002734
3115.38	0.002194
3125.03	0.001914
3134.67	0.0015552
3144.32	0.0012924
3153.96	0.0011818
3163.61	0.001047
3173.25	0.0009958
3182.9	0.0010086
3192.54	0.0010272
3202.19	0.0010905
3211.83	0.0010689
3221.48	0.000844
3231.12	0.0008211
3240.77	0.00065581
3250.41	0.0009038
3260.06	0.000545
3269.7	0.00058
3279.35	0.000568
3289	0.000334
3298.64	0.000406
3308.29	0.000115
3317.93	0.00043
3327.58	0.00044
3337.22	0.000193
3346.87	0.000254
3356.51	1.7e-05
3366.16	0.000381
3375.8	0.000436
3385.45	0.000799
3395.09	0.0015578
3404.74	0.003734
3414.38	0.006754
3424.03	0.005734
3433.67	0.002644
3443.32	0.0013097
3452.96	0.0011193
3462.61	0.0016444
3472.25	0.002334
3481.9	0.005094
3491.54	0.009834
3501.19	0.011024
3510.83	0.006134
3520.48	0.002844
3530.12	0.001537
3539.77	0.0010694
3549.41	0.000671987
3559.06	0.000437
3568.7	0.000452
3578.35	0.000303
3587.99	0.000384
3597.64	0.000239
3607.28	0.000136
3616.93	0.000351
3626.57	0.000158
3636.22	0.000127
3645.86	0.000201
3655.51	0.000102
3665.15	0.000139
3674.8	0.000118
3684.44	0.000162
3694.09	0.000123
3703.73	0.000202
3713.38	7e-05
3723.02	0.000153
3732.67	0.000335
3742.31	5.2e-05
3751.96	0.000291
3761.6	0.000257
3771.25	0.000213
3780.89	0.000437
3790.54	0.000414
3800.18	0.000262
3809.83	0.000558
3819.47	0.0005669
3829.12	0.000322
3838.76	0.00052
3848.41	0.000372
3858.05	0.0005773
3867.7	0.00049
3877.34	0.00073609
3886.99	0.00066118
3896.63	0.000623
3906.28	0.000643
3915.92	0.0008727
3925.57	0.0007933
3935.21	0.0008789
3944.86	0.0010369
3954.5	0.0009612
3964.15	0.0008768
3973.79	0.0007923
3983.44	0.0008949
3993.08	0.0008358
