Infrared Spectrum: Salicylidene o-toluic hydrazone
Formula: C 15 H 14 N 2 O 2
CAS: 82859-72-1
State: gas
Origin: EPA-IR VAPOR PHASE LIBRARY
1/CM	ABSORBANCE
549.8	0.003554
559.445	0.004274
569.09	0.003814
578.734	0.003634
588.379	0.005064
598.024	0.003874
607.669	0.002804
617.313	0.002804
626.958	0.002984
636.603	0.003364
646.248	0.004134
655.893	0.004164
665.537	0.004614
675.182	0.004724
684.827	0.004624
694.472	0.003644
704.116	0.002964
713.761	0.003574
723.406	0.006604
733.051	0.010804
742.695	0.012344
752.34	0.014754
761.985	0.006884
771.63	0.005174
781.275	0.003754
790.919	0.003104
800.564	0.002204
810.209	0.002044
819.854	0.001984
829.498	0.001524
839.143	0.0011749
848.788	0.001724
858.433	0.001744
868.078	0.001814
877.722	0.002134
887.367	0.001614
897.012	0.001804
906.657	0.001624
916.301	0.002014
925.946	0.002244
935.591	0.002904
945.236	0.004134
954.88	0.002994
964.525	0.002504
974.17	0.002454
983.815	0.002864
993.46	0.002864
1003.1	0.001904
1012.75	0.001604
1022.39	0.002124
1032.04	0.003714
1041.68	0.003014
1051.33	0.002614
1060.97	0.002474
1070.62	0.003154
1080.26	0.003854
1089.91	0.006064
1099.55	0.008684
1109.2	0.010964
1118.84	0.007194
1128.49	0.009034
1138.13	0.015994
1147.78	0.015434
1157.42	0.008494
1167.07	0.005034
1176.71	0.004704
1186.36	0.006394
1196	0.008824
1205.64	0.007704
1215.29	0.008534
1224.93	0.011364
1234.58	0.019644
1244.22	0.020144
1253.87	0.010764
1263.51	0.012424
1273.16	0.019394
1282.8	0.018804
1292.45	0.014984
1302.09	0.022364
1311.74	0.017104
1321.38	0.012974
1331.03	0.009074
1340.67	0.009964
1350.32	0.010864
1359.96	0.010924
1369.61	0.007594
1379.25	0.007184
1388.9	0.007034
1398.54	0.006474
1408.18	0.005584
1417.83	0.004694
1427.47	0.005394
1437.12	0.007784
1446.76	0.010264
1456.41	0.011274
1466.05	0.014794
1475.7	0.022104
1485.34	0.022884
1494.99	0.017164
1504.63	0.009384
1514.28	0.005454
1523.92	0.004014
1533.57	0.002924
1543.21	0.002654
1552.86	0.002944
1562.5	0.004184
1572.15	0.007064
1581.79	0.005864
1591.44	0.004914
1601.08	0.008094
1610.73	0.013374
1620.37	0.015894
1630.01	0.006584
1639.66	0.003394
1649.3	0.002714
1658.95	0.002884
1668.59	0.003824
1678.24	0.004964
1687.88	0.006244
1697.53	0.011904
1707.17	0.028294
1716.82	0.039624
1726.46	0.018914
1736.11	0.011484
1745.75	0.005844
1755.4	0.003574
1765.04	0.002634
1774.69	0.002214
1784.33	0.001764
1793.98	0.001414
1803.62	0.001464
1813.27	0.001284
1822.91	0.001204
1832.55	0.0011032
1842.2	0.0010275
1851.84	0.0009945
1861.49	0.0009004
1871.13	0.0009484
1880.78	0.0010213
1890.42	0.0011273
1900.07	0.0010784
1909.71	0.0010801
1919.36	0.0011071
1929	0.001244
1938.65	0.001294
1948.29	0.0009536
1957.94	0.0008311
1967.58	0.000673
1977.23	0.0005838
1986.87	0.0005647
1996.52	0.0006102
2006.16	0.0006845
2015.81	0.0005565
2025.45	0.0005893
2035.1	0.0005914
2044.74	0.0005811
2054.38	0.0006423
2064.03	0.0006114
2073.67	0.0005148
2083.32	0.0005874
2092.96	0.0005634
2102.61	0.0005724
2112.25	0.0005675
2121.9	0.000497
2131.54	0.0005325
2141.19	0.0006353
2150.83	0.0005236
2160.48	0.000508
2170.12	0.0005018
2179.77	0.0005433
2189.41	0.000511
2199.06	0.000564
2208.7	0.0005584
2218.35	0.0005139
2227.99	0.0004861
2237.64	0.0004946
2247.28	0.0004699
2256.92	0.0006976
2266.57	0.0005877
2276.21	0.0005155
2285.86	0.0005675
2295.5	0.000576
2305.15	0.0005956
2314.79	0.000526
2324.44	0.000544
2334.08	0.0005559
2343.73	0.0006353
2353.37	0.0007381
2363.02	0.00044
2372.66	0.0006057
2382.31	0.0005649
2391.95	0.0006508
2401.6	0.0006305
2411.24	0.0006882
2420.89	0.0005023
2430.53	0.0005501
2440.18	0.0005848
2449.82	0.000521
2459.47	0.0005615
2469.11	0.0005877
2478.75	0.0005536
2488.4	0.0006623
2498.04	0.0006554
2507.69	0.0007184
2517.33	0.0007163
2526.98	0.0006035
2536.62	0.000646
2546.27	0.0006509
2555.91	0.0007448
2565.56	0.0007332
2575.2	0.0008416
2584.85	0.0009121
2594.49	0.0007931
2604.14	0.000699
2613.78	0.0007051
2623.43	0.0008668
2633.07	0.0006459
2642.72	0.0007175
2652.36	0.000647
2662.01	0.0007429
2671.65	0.0006607
2681.29	0.0007426
2690.94	0.0007221
2700.58	0.0008002
2710.23	0.0008214
2719.87	0.0008919
2729.52	0.0009272
2739.16	0.0009705
2748.81	0.000984
2758.45	0.0010422
2768.1	0.0010198
2777.74	0.0008345
2787.39	0.0008007
2797.03	0.0009163
2806.68	0.0008338
2816.32	0.0009541
2825.97	0.0011101
2835.61	0.0011212
2845.26	0.001404
2854.9	0.001544
2864.55	0.001844
2874.19	0.002364
2883.84	0.002654
2893.48	0.002784
2903.12	0.002504
2912.77	0.002454
2922.41	0.002714
2932.06	0.003164
2941.7	0.003434
2951.35	0.003154
2960.99	0.003034
2970.64	0.002924
2980.28	0.002734
2989.93	0.002474
2999.57	0.002534
3009.22	0.002784
3018.86	0.003744
3028.51	0.004884
3038.15	0.004674
3047.8	0.004744
3057.44	0.005554
3067.09	0.007804
3076.73	0.008184
3086.38	0.005094
3096.02	0.004014
3105.67	0.003444
3115.31	0.002914
3124.95	0.002534
3134.6	0.002704
3144.24	0.002634
3153.89	0.002774
3163.53	0.002924
3173.18	0.002764
3182.82	0.003084
3192.47	0.003124
3202.11	0.003394
3211.76	0.003354
3221.4	0.003534
3231.05	0.003784
3240.69	0.004044
3250.34	0.004204
3259.98	0.004404
3269.63	0.004354
3279.27	0.004524
3288.92	0.004084
3298.56	0.004244
3308.21	0.004164
3317.85	0.004024
3327.49	0.003954
3337.14	0.004384
3346.78	0.004034
3356.43	0.003474
3366.07	0.003284
3375.72	0.003124
3385.36	0.002904
3395.01	0.002614
3404.65	0.002364
3414.3	0.002354
3423.94	0.002274
3433.59	0.002154
3443.23	0.001884
3452.88	0.002384
3462.52	0.002504
3472.17	0.001984
3481.81	0.001474
3491.46	0.0010932
3501.1	0.0010959
3510.75	0.001084
3520.39	0.000823
3530.04	0.0007422
3539.68	0.0008029
3549.32	0.0005437
3558.97	0.0006522
3568.61	0.0005771
3578.26	0.0005675
3587.9	0.0004302
3597.55	0.0004964
3607.19	0.00028039
3616.84	0.0005084
3626.48	0.000591
3636.13	0.0005271
3645.77	0.0005765
3655.42	0.0005326
3665.06	0.0003183
3674.71	0.0003593
3684.35	0.0003822
3694	0.0004463
3703.64	0.0004841
3713.29	0
3722.93	0.0005434
3732.58	0.0004033
3742.22	0.00033
3751.86	0.00024318
3761.51	0.0003902
3771.15	0.0003194
3780.8	0.0003136
3790.44	0.0004511
3800.09	0.0003516
3809.73	0.00027241
3819.38	0.0003497
3829.02	0.0003245
3838.67	0.000353
3848.31	0.0004123
3857.96	0.00029348
3867.6	0.000524
3877.25	0.000108
3886.89	0.0004882
3896.54	0.0004885
3906.18	0.00025781
3915.83	0.0003029
3925.47	8.6e-05
3935.12	0.00018817
3944.76	0.0003637
3954.41	0.000347
3964.05	0.0004844
3973.69	0.0005422
3983.34	8.1e-05
3992.98	0.0003105
