Infrared Spectrum: Acetamide, N-methyl-2-(N-methylanilino)-
Formula: C10 H14 N2 O
CAS: 82898-85-9
State: SOLUTION 7% (CHCl3 FOR 2.5-12.5 microns)
Class: COBLENTZ
Instrument: PERKIN-ELMER 21 (GRATING)
Instrument parameters: FILTER AT ABOUT 10 MICRONS
Path length: 0.01 CM
Resolution: 2
Origin: ABBOTT LABORATORIES
1/CM	TRANSMITTANCE
783	1.0022
792	1.0012
801	0.9999
810	0.985
819	0.971
828	0.948
837	0.957
846	0.9492
855	0.8937
864	0.8148
873	0.8818
882	0.9278
891	0.9316
900	0.9373
909	0.9377
918	0.9196
927	0.8492
936	0.5995
945	0.7654
954	0.8888
963	0.8992
972	0.8824
981	0.7908
990	0.8243
999	0.6773
1008	0.8692
1017	0.8478
1026	0.6692
1035	0.8466
1044	0.8645
1053	0.8504
1062	0.8214
1071	0.8063
1080	0.8076
1089	0.7911
1098	0.7156
1107	0.4477
1116	0.5633
1125	0.7651
1134	0.7746
1143	0.7571
1152	0.6831
1161	0.7303
1170	0.7142
1179	0.5927
1188	0.5095
1197	0.4761
1206	0.4432
1215	0.4108
1224	0.3789
1233	0.3731
1242	0.4816
1251	0.6051
1260	0.7186
1269	0.7441
1278	0.7366
1287	0.6754
1296	0.5365
1305	0.3989
1314	0.4033
1323	0.529
1332	0.4767
1341	0.4792
1350	0.4328
1359	0.6528
1368	0.7506
1377	0.7635
1386	0.7495
1395	0.6325
1404	0.3696
1413	0.6598
1422	0.7466
1431	0.5802
1440	0.6144
1449	0.6794
1458	0.6631
1467	0.5335
1476	0.5029
1485	0.2609
1494	0.1225
1503	0.2982
1512	0.2419
1521	0.2109
1530	0.3164
1539	0.4464
1548	0.5556
1557	0.5651
1566	0.5059
1575	0.5491
1584	0.2992
1593	0.1246
1602	0.5213
1611	0.6467
1620	0.6561
1629	0.6232
1638	0.4105
1647	0.1748
1656	0.042
1665	0.0409
1674	0.3411
1683	0.6109
1692	0.8079
1701	0.8457
1710	0.8686
1719	0.879
1728	0.89
1737	0.896
1746	0.8991
1755	0.9074
1764	0.9176
1773	0.9277
1782	0.9314
1791	0.9316
1800	0.9309
1809	0.9301
1818	0.9296
1827	0.929
1836	0.9375
1845	0.9427
1854	0.9432
1863	0.9428
1872	0.9416
1881	0.9398
1890	0.9336
1899	0.9205
1908	0.9157
1917	0.9224
1926	0.9322
1935	0.9396
1944	0.945
1953	0.9487
1962	0.9503
1971	0.9506
1980	0.9523
1989	0.9543
1998	0.9568
2007	0.9588
2016	0.9581
2025	0.9566
2034	0.9547
2043	0.9528
2052	0.9509
2061	0.9491
2070	0.948
2079	0.9476
2088	0.9478
2097	0.9501
2106	0.9534
2115	0.9562
2124	0.9585
2133	0.9605
2142	0.9617
2151	0.9628
2160	0.9628
2169	0.9628
2178	0.9623
2187	0.9618
2196	0.9612
2205	0.9606
2214	0.9602
2223	0.9598
2232	0.9596
2241	0.9592
2250	0.959
2259	0.9586
2268	0.9586
2277	0.9586
2286	0.9586
2295	0.9587
2304	0.9587
2313	0.959
2322	0.9596
2331	0.9603
2340	0.9619
2349	0.9593
2358	0.9515
2367	0.9435
2376	0.9347
2385	0.9262
2394	0.9224
2403	0.9199
2412	0.9191
2421	0.9189
2430	0.9193
2439	0.9211
2448	0.9231
2457	0.9263
2466	0.9292
2475	0.9304
2484	0.9301
2493	0.9297
2502	0.9294
2511	0.933
2520	0.9373
2529	0.9412
2538	0.9416
2547	0.9418
2556	0.942
2565	0.9425
2574	0.9428
2583	0.9431
2592	0.9422
2601	0.9413
2610	0.9404
2619	0.9394
2628	0.9383
2637	0.9393
2646	0.9408
2655	0.9401
2664	0.937
2673	0.9328
2682	0.9273
2691	0.9218
2700	0.9154
2709	0.909
2718	0.8985
2727	0.8815
2736	0.854
2745	0.8267
2754	0.7997
2763	0.7826
2772	0.788
2781	0.7966
2790	0.7952
2799	0.7693
2808	0.7432
2817	0.7173
2826	0.6916
2835	0.6629
2844	0.641
2853	0.6316
2862	0.6295
2871	0.6289
2880	0.6272
2889	0.6199
2898	0.5927
2907	0.5609
2916	0.5295
2925	0.4982
2934	0.4673
2943	0.4624
2952	0.4975
2961	0.5986
2970	0.699
2979	0.7749
2988	0.805
2997	0.821
3006	0.8296
3015	0.8378
3024	0.8469
3033	0.8566
3042	0.8671
3051	0.8789
3060	0.8929
3069	0.9104
3078	0.9187
3087	0.9214
3096	0.9231
3105	0.9232
3114	0.9228
3123	0.9218
3132	0.9204
3141	0.9187
3150	0.9164
3159	0.9141
3168	0.9118
3177	0.9089
3186	0.9059
3195	0.9029
3204	0.8979
3213	0.8924
3222	0.882
3231	0.8707
3240	0.8585
3249	0.8509
3258	0.8433
3267	0.8357
3276	0.8283
3285	0.8214
3294	0.811
3303	0.7406
3312	0.6627
3321	0.5853
3330	0.5084
3339	0.4796
3348	0.4951
3357	0.5814
3366	0.6671
3375	0.7525
3384	0.8374
3393	0.9007
3402	0.9134
3411	0.921
3420	0.9239
3429	0.9268
3438	0.9306
3447	0.9348
3456	0.9367
3465	0.9383
3474	0.9399
3483	0.9413
3492	0.9417
3501	0.9418
3510	0.9418
3519	0.9418
3528	0.9419
3537	0.942
3546	0.9421
3555	0.9423
3564	0.9425
3573	0.9426
3582	0.9428
3591	0.9452
3600	0.9485
3609	0.9523
3618	0.9544
3627	0.9544
3636	0.9544
3645	0.9543
3654	0.9543
3663	0.9539
3672	0.9535
3681	0.9531
3690	0.9527
3699	0.9522
3708	0.9518
3717	0.9513
3726	0.9508
3735	0.9504
3744	0.9499
3753	0.9495
3762	0.949
3771	0.9483
3780	0.9476
3789	0.947
3798	0.9463
3807	0.9457
3816	0.945
3825	0.9443
3834	0.9437
3843	0.9431
3852	0.9425
3861	0.9419
3870	0.9412
3879	0.9407
3888	0.9402
3897	0.9396
3906	0.939
3915	0.9385
3924	0.938
3933	0.9375
3942	0.937
3951	0.9366
3960	0.936
3969	0.9356
3978	0.9351
3987	0.9347
3996	0.9342
