Infrared Spectrum: 2,3,6-Trimethylnaphthalene
Formula: C 13 H 14
CAS: 829-26-5
State: gas
Instrument: HP-GC/MS/IRD
Origin: NIST Mass Spectrometry Data Center
1/CM	ABSORBANCE
550	0.0004031
562	0.0010411
574	0.000232
586	0.0003277
598	0.000754
610	0.0003016
622	4.93e-05
634	0.000174
646	0.0013137
658	0.0014558
670	0.0002842
682	0.0001044
694	6.09e-05
706	1.16e-05
718	0.000116
730	3.77e-05
742	0.0002494
754	0.0006119
766	0.0006931
778	0.001769
790	0.0058725
802	0.0039759
814	0.0009425
826	0.0006641
838	0.0012557
850	0.0019372
862	0.0056086
874	0.0134009
886	0.0103588
898	0.0043587
910	0.001218
922	0.0009077
934	0.0010875
946	0.0018096
958	0.0010527
970	0.0008091
982	0.0014877
994	0.0031987
1006	0.0031784
1018	0.001827
1030	0.0017313
1042	0.0011774
1054	0.0007192
1066	0.0004321
1078	0.0003538
1090	0.0005104
1102	0.0005423
1114	0.000435
1126	0.0005568
1138	0.0011078
1150	0.0022707
1162	0.0016762
1174	0.0009541
1186	0.0008816
1198	0.000696
1210	0.0009222
1222	0.0020271
1234	0.0015776
1246	0.0006061
1258	0.0006902
1270	0.0012267
1282	0.0012093
1294	0.000725
1306	0.000696
1318	0.0007018
1330	0.0008729
1342	0.0012412
1354	0.0022765
1366	0.0027231
1378	0.0027202
1390	0.0019285
1402	0.0013427
1414	0.0015863
1426	0.0024911
1438	0.0046661
1450	0.0074559
1462	0.006989
1474	0.0040571
1486	0.003741
1498	0.0089929
1510	0.0061654
1522	0.0023403
1534	0.0016907
1546	0.0014268
1558	0.0013659
1570	0.001682
1582	0.0024795
1594	0.0031378
1606	0.0048691
1618	0.0049416
1630	0.003625
1642	0.0032857
1654	0.0010382
1666	0.0006873
1678	0.000754
1690	0.001131
1702	0.0009541
1714	0.0005452
1726	0.000609
1738	0.0012876
1750	0.0010585
1762	0.0006409
1774	0.0006786
1786	0.0005162
1798	0.000319
1810	0.0002436
1822	0.0003045
1834	0.000319
1846	0.0001972
1858	0.0001305
1870	0.000145
1882	0.0003625
1894	0.000841
1906	0.0008178
1918	0.00029
1930	0.0001421
1942	8.41e-05
1954	8.41e-05
1966	3.77e-05
1978	8.7e-05
1990	2.61e-05
2002	3.48e-05
2014	0
2026	2.32e-05
2038	4.64e-05
2050	6.09e-05
2062	4.35e-05
2074	8.12e-05
2086	2.61e-05
2098	5.51e-05
2110	7.25e-05
2122	4.93e-05
2134	4.93e-05
2146	6.09e-05
2158	7.54e-05
2170	1.74e-05
2182	3.48e-05
2194	4.93e-05
2206	5.8e-05
2218	8.12e-05
2230	6.09e-05
2242	5.51e-05
2254	1.74e-05
2266	2.61e-05
2278	4.35e-05
2290	7.54e-05
2302	0.0001073
2314	9.28e-05
2326	8.7e-05
2338	0.0001015
2350	0.0001073
2362	0.0001131
2374	0.0001334
2386	0.0001421
2398	0.0002088
2410	0.0002088
2422	0.0002117
2434	0.0001885
2446	0.0002117
2458	0.0002204
2470	0.0002523
2482	0.0002581
2494	0.0001914
2506	0.0001624
2518	0.0001392
2530	0.0001131
2542	0.0001363
2554	0.0001856
2566	0.0001943
2578	0.0001972
2590	0.0001769
2602	0.0002088
2614	0.000203
2626	0.0002117
2638	0.0002146
2650	0.0002059
2662	0.0002059
2674	0.000232
2686	0.00029
2698	0.0003045
2710	0.0003828
2722	0.0005916
2734	0.0011919
2746	0.0013311
2758	0.0009193
2770	0.0008816
2782	0.0008091
2794	0.000899
2806	0.0011629
2818	0.0015341
2830	0.0021518
2842	0.0032277
2854	0.0055042
2866	0.0101355
2878	0.0135314
2890	0.0122902
2902	0.0117421
2914	0.0142506
2926	0.0251604
2938	0.0265669
2950	0.0172579
2962	0.0146798
2974	0.0157615
2986	0.0147726
2998	0.0122119
3010	0.0149988
3022	0.0171158
3034	0.012818
3046	0.013021
3058	0.0129514
3070	0.0068904
3082	0.0038657
3094	0.0027608
3106	0.0019778
3118	0.0014703
3130	0.0011948
3142	0.0009338
3154	0.0007018
3166	0.0005452
3178	0.000435
3190	0.0003451
3202	0.0002755
3214	0.0002987
3226	0.0003103
3238	0.0002552
3250	0.0002581
3262	0.0002349
3274	0.0002204
3286	0.0002001
3298	0.000203
3310	0.0001537
3322	0.0001972
3334	0.0001595
3346	0.0001537
3358	0.0001537
3370	0.0001595
3382	0.0001218
3394	0.0001972
3406	0.0001508
3418	0.0001276
3430	0.0001711
3442	0.0001914
3454	0.0001653
3466	0.0001392
3478	0.0001508
3490	0.0001537
3502	0.0001334
3514	0.0001479
3526	3.77e-05
3538	8.99e-05
3550	6.38e-05
3562	6.96e-05
3574	0.0001015
3586	5.22e-05
3598	8.7e-05
3610	4.64e-05
3622	8.7e-05
3634	7.54e-05
3646	0.0001073
3658	0.0002146
3670	0.0002465
3682	0.0001711
3694	0.0001508
3706	0.0001073
3718	2.9e-05
3730	9.28e-05
3742	5.22e-05
3754	0.0001044
3766	0.0001682
3778	0.0001508
3790	0.0002175
3802	0.000232
3814	0.0002117
3826	0.0001276
3838	0.000145
