Infrared Spectrum: 4-Aminoantipyrine
Formula: C 11 H 13 N 3 O
CAS: 83-07-8
State: gas
Instrument: HP-GC/MS/IRD
Origin: NIST Mass Spectrometry Data Center
1/CM	ABSORBANCE
550	0.0007267
562	0.0009761
574	0.0017759
586	0.0012298
598	0.0005762
610	0.0007826
622	0.001032
634	0.0017759
646	0.0026574
658	0.0026746
670	0.0035088
682	0.0036722
694	0.0056244
706	0.0035561
718	0.0021199
730	0.0021715
742	0.0042097
754	0.0062178
766	0.0037367
778	0.0011567
790	0.0007955
802	0.0006536
814	0.0005547
826	0.0005375
838	0.0003397
850	0.0003741
862	0.0003139
874	0.0003483
886	0.0003913
898	0.0005461
910	0.000602
922	0.0006923
934	0.0002451
946	2.58e-05
958	9.89e-05
970	0.0002365
982	0.0003569
994	0.0004558
1006	0.0004687
1018	0.0005848
1030	0.00086
1042	0.0003698
1054	0.0003096
1066	0.0004988
1078	0.0005848
1090	0.0007396
1102	0.0010922
1114	0.001161
1126	0.002107
1138	0.0023478
1150	0.0034916
1162	0.005074
1174	0.0044978
1186	0.0022919
1198	0.0013502
1210	0.0021715
1222	0.0024639
1234	0.0030358
1246	0.0040033
1258	0.0078862
1270	0.0116831
1282	0.0091934
1294	0.0069402
1306	0.0076927
1318	0.0068026
1330	0.0074949
1342	0.007095
1354	0.0035905
1366	0.0026402
1378	0.0017415
1390	0.0015351
1402	0.0016168
1414	0.0025843
1426	0.0034873
1438	0.002881
1450	0.0039431
1462	0.004085
1474	0.0034615
1486	0.0059641
1498	0.0129645
1510	0.0035862
1522	0.0021715
1534	0.0021156
1546	0.0021973
1558	0.0021371
1570	0.0023478
1582	0.0046526
1594	0.0101136
1606	0.0087892
1618	0.0051041
1630	0.0030186
1642	0.0025671
1654	0.0029928
1666	0.0043129
1678	0.0070262
1690	0.010664
1702	0.0287584
1714	0.0423507
1726	0.0166711
1738	0.0056072
1750	0.0027735
1762	0.0015394
1774	0.0009847
1786	0.0007998
1798	0.0005762
1810	0.0004472
1822	0.0003182
1834	0.0002408
1846	0.0002236
1858	0.0003182
1870	0.000215
1882	0.0001806
1894	0.0001204
1906	0.0001204
1918	0.0002193
1930	0.0003913
1942	0.0003483
1954	0.0002623
1966	8.6e-05
1978	8.6e-05
1990	8.6e-05
2002	6.45e-05
2014	3.01e-05
2026	1.29e-05
2038	8.6e-06
2050	0
2062	2.15e-05
2074	2.58e-05
2086	4.3e-05
2098	5.59e-05
2110	5.16e-05
2122	3.87e-05
2134	4.3e-05
2146	4.3e-05
2158	4.73e-05
2170	6.45e-05
2182	7.31e-05
2194	8.6e-05
2206	7.74e-05
2218	9.46e-05
2230	9.46e-05
2242	0.0001634
2254	0.0002623
2266	0.0002924
2278	0.0003311
2290	0.0002537
2302	0.0001548
2314	0.0001247
2326	0.0001247
2338	0.0001247
2350	0.0001247
2362	0.0001161
2374	0.000129
2386	9.89e-05
2398	4.73e-05
2410	5.59e-05
2422	7.74e-05
2434	7.31e-05
2446	6.45e-05
2458	7.31e-05
2470	6.45e-05
2482	6.88e-05
2494	6.88e-05
2506	0.0001118
2518	5.59e-05
2530	9.03e-05
2542	6.02e-05
2554	8.17e-05
2566	9.89e-05
2578	9.89e-05
2590	0.0001161
2602	0.000129
2614	0.0001075
2626	0.000129
2638	7.31e-05
2650	4.73e-05
2662	2.15e-05
2674	8.17e-05
2686	8.6e-05
2698	9.46e-05
2710	0.0001075
2722	0.0001075
2734	9.89e-05
2746	0.0001204
2758	0.0001892
2770	0.0002021
2782	0.0003569
2794	0.0005375
2806	0.0008729
2818	0.0006364
2830	0.0005031
2842	0.0006192
2854	0.0008858
2866	0.0015695
2878	0.0025112
2890	0.0029584
2902	0.0025843
2914	0.0022962
2926	0.0033196
2938	0.0028552
2950	0.0015824
2962	0.0014792
2974	0.001935
2986	0.002752
2998	0.001763
3010	0.002021
3022	0.0015351
3034	0.0018619
3046	0.002365
3058	0.0024123
3070	0.0030745
3082	0.0027735
3094	0.0015437
3106	0.0010965
3118	0.0005934
3130	0.0004644
3142	0.000387
3154	0.0003569
3166	0.0003311
3178	0.0003655
3190	0.0003827
3202	0.0003655
3214	0.0003956
3226	0.0004042
3238	0.0003268
3250	0.0002967
3262	0.0002709
3274	0.0002537
3286	0.0002365
3298	0.0002322
3310	0.0001978
3322	0.0002322
3334	0.0002537
3346	0.0003784
3358	0.0008729
3370	0.0011094
3382	0.0007009
3394	0.0005676
3406	0.0006622
3418	0.0005805
3430	0.000559
3442	0.000774
3454	0.0009761
3466	0.0006837
3478	0.0004343
3490	0.0003225
3502	0.0002537
3514	0.0002064
3526	0.000129
3538	0.0001634
3550	0.0001419
3562	0.0001118
3574	0.0001462
3586	3.01e-05
3598	7.74e-05
3610	5.59e-05
3622	0.0001548
3634	8.6e-05
3646	0.0001118
3658	9.89e-05
3670	9.89e-05
3682	0.0001548
3694	0.0001333
3706	0.0001075
3718	3.87e-05
3730	8.6e-05
3742	6.88e-05
3754	5.59e-05
3766	0.000129
3778	0.0001333
3790	0.0001032
3802	6.88e-05
3814	5.59e-05
3826	7.74e-05
3838	4.3e-05
