Infrared Spectrum: Diphenylcarbamoyl chloride
Formula: C13 H10 Cl N O
CAS: 83-01-2
State: SOLUTION (10% CCl4 FOR 3800-1330, 10% CS2 FOR 1330-450)
Class: COBLENTZ III
Instrument: DOW KBr FOREPRISM-GRATING
Instrument parameters: BLAZED AT 3.5, 12.0, 20.0 MICRON AND CHANGED AT 5.0, 7.5, 14.9 MICRON
Sampling: TRANSMISSION
Path length: 0.0114 CM, 0.0110 CM
Resolution: 2
Origin: DOW CHEMICAL COMPANY
1/CM	TRANSMITTANCE
3812	0.9343
3803	0.9347
3794	0.9336
3785	0.9336
3776	0.9337
3767	0.9348
3758	0.9401
3749	0.9427
3740	0.9392
3731	0.9356
3722	0.9324
3713	0.9308
3704	0.9329
3695	0.9362
3686	0.9321
3677	0.9283
3668	0.9312
3659	0.9314
3650	0.9304
3641	0.9332
3632	0.9381
3623	0.9414
3614	0.9408
3605	0.9401
3596	0.9394
3587	0.9442
3578	0.9443
3569	0.9427
3560	0.943
3551	0.9447
3542	0.945
3533	0.9447
3524	0.943
3515	0.9416
3506	0.9362
3497	0.9305
3488	0.9249
3479	0.926
3470	0.934
3461	0.9429
3452	0.955
3443	0.9646
3434	0.9663
3425	0.9699
3416	0.9742
3407	0.975
3398	0.9743
3389	0.9746
3380	0.9751
3371	0.9741
3362	0.9692
3353	0.9692
3344	0.971
3335	0.9699
3326	0.9705
3317	0.9707
3308	0.9718
3299	0.9703
3290	0.9701
3281	0.9693
3272	0.97
3263	0.9689
3254	0.9676
3245	0.9653
3236	0.9648
3227	0.9629
3218	0.9618
3209	0.9605
3200	0.958
3191	0.9571
3182	0.954
3173	0.9524
3164	0.9512
3155	0.9488
3146	0.9467
3137	0.9451
3128	0.9341
3119	0.9117
3110	0.8709
3101	0.7975
3092	0.8103
3083	0.707
3074	0.646
3065	0.715
3056	0.7699
3047	0.642
3038	0.7415
3029	0.8152
3020	0.8835
3011	0.9046
3002	0.9167
2993	0.929
2984	0.9386
2975	0.9462
2966	0.9523
2957	0.9525
2948	0.9504
2939	0.954
2930	0.9549
2921	0.9545
2912	0.9475
2903	0.9437
2894	0.9428
2885	0.9432
2876	0.944
2867	0.9456
2858	0.9522
2849	0.9555
2840	0.9556
2831	0.9536
2822	0.953
2813	0.9528
2804	0.9543
2795	0.9534
2786	0.9507
2777	0.9515
2768	0.9514
2759	0.9511
2750	0.951
2741	0.9509
2732	0.9517
2723	0.9528
2714	0.9542
2705	0.9554
2696	0.9527
2687	0.9536
2678	0.9537
2669	0.9528
2660	0.9519
2651	0.952
2642	0.951
2633	0.9487
2624	0.9466
2615	0.947
2606	0.9426
2597	0.9414
2588	0.9412
2579	0.9415
2570	0.9415
2561	0.9413
2552	0.9415
2543	0.9417
2534	0.9422
2525	0.9435
2516	0.946
2507	0.9492
2498	0.9507
2489	0.9505
2480	0.9503
2471	0.9493
2462	0.9516
2453	0.9498
2444	0.9491
2435	0.9501
2426	0.9485
2417	0.9436
2408	0.9406
2399	0.9409
2390	0.9446
2381	0.9575
2372	0.9378
2363	0.9886
2354	0.9842
2345	0.9733
2336	0.9615
2327	0.9598
2318	0.9623
2309	0.9617
2300	0.9574
2291	0.9563
2282	0.9519
2273	0.9523
2264	0.9525
2255	0.9528
2246	0.9512
2237	0.9514
2228	0.9533
2219	0.955
2210	0.9567
2201	0.9581
2192	0.957
2183	0.9578
2174	0.9587
2165	0.9576
2156	0.9591
2147	0.9551
2138	0.9568
2129	0.9576
2120	0.9562
2111	0.956
2102	0.9558
2093	0.9552
2084	0.9535
2075	0.951
2066	0.948
2057	0.9486
2048	0.9499
2039	0.9515
2030	0.9518
2021	0.9525
2012	0.9462
2003	0.9443
1994	0.9376
1985	0.9333
1976	0.9147
1967	0.8751
1958	0.9021
1949	0.8445
1940	0.832
1931	0.9188
1922	0.9268
1913	0.9322
1904	0.9211
1895	0.9037
1886	0.8814
1877	0.8556
1868	0.8592
1859	0.8882
1850	0.8997
1841	0.8916
1832	0.8756
1823	0.8553
1814	0.8539
1805	0.8427
1796	0.7894
1787	0.7153
1778	0.5788
1769	0.2628
1760	0.0311
1751	0.0077
1742	0.0042
1733	0.0134
1724	0.2896
1715	0.5519
1706	0.7027
1697	0.7921
1688	0.8528
1679	0.8818
1670	0.8911
1661	0.8935
1652	0.9067
1643	0.8929
1634	0.9013
1625	0.8825
1616	0.8586
1607	0.7297
1598	0.276
1589	0.3391
1580	0.6775
1571	0.7539
1562	0.7915
1553	0.7898
1544	0.7541
1535	0.7951
1526	0.8213
1517	0.7994
1508	0.7625
1499	0.0887
1490	0.0563
1481	0.813
1472	0.894
1463	0.8673
1454	0.5164
1445	0.8514
1436	0.9188
1427	0.9178
1418	0.9179
1409	0.9437
1400	0.9532
1391	0.9261
1382	0.9588
1373	0.9199
1364	0.873
1355	0.8007
1346	0.6252
1337	0.3968
1328	0.5322
1319	0.5628
1310	0.4609
1301	0.331
1292	0.2032
1283	0.1197
1274	0.0312
1265	0.0045
1256	0.0172
1247	0.2906
1238	0.5971
1229	0.7607
1220	0.8263
1211	0.8609
1202	0.9002
1193	0.9059
1184	0.8701
1175	0.7301
1166	0.8373
1157	0.7422
1148	0.3222
1139	0.0516
1130	0.6575
1121	0.8962
1112	0.9418
1103	0.9173
1094	0.9506
1085	0.9468
1076	0.6552
1067	0.9095
1058	0.9704
1049	0.9806
1040	0.9689
1031	0.5573
1022	0.8681
1013	0.9454
1004	0.7524
995	0.9413
986	0.9408
977	0.9265
968	0.8794
959	0.3039
950	0.7873
941	0.9278
932	0.9568
923	0.9558
914	0.8603
905	0.8455
896	0.9434
887	0.9709
878	0.9661
869	0.9576
860	0.9526
851	0.9218
842	0.9029
833	0.7844
824	0.6398
815	0.3394
806	0.3014
797	0.807
788	0.9158
779	0.9269
770	0.7967
761	0.1837
752	0.0472
743	0.6639
734	0.9043
725	0.926
716	0.9036
707	0.8224
698	0.1749
689	0.0721
680	0.2444
671	0.7869
662	0.437
653	0.864
644	0.8986
635	0.92
626	0.8991
617	0.7154
608	0.2244
599	0.8484
590	0.9088
581	0.9332
572	0.9443
563	0.9417
554	0.9294
545	0.891
536	0.6282
527	0.8183
518	0.8368
509	0.6236
500	0.7778
491	0.8485
482	0.8569
473	0.819
464	0.7009
455	0.7372
