Infrared Spectrum: 4-Acetamidoantipyrene
Formula: C 13 H 15 N 3 O 2
CAS: 83-15-8
State: gas
Instrument: HP-GC/MS/IRD
Origin: NIST Mass Spectrometry Data Center
1/CM	ABSORBANCE
550	0.0008766
562	0.0008019
574	0.0005598
586	0.0005895
598	0.0005247
610	0.00045
622	0.0004464
634	0.0003114
646	0.0006687
658	0.0004554
670	0.0002376
682	0.000405
694	0.000693
706	0.000378
718	0.0003456
730	0.000684
742	0.00108
754	0.0006912
766	0.0004392
778	0.0003762
790	0.0002196
802	9.72e-05
814	9.54e-05
826	8.91e-05
838	5.76e-05
850	1.44e-05
862	2.61e-05
874	6.75e-05
886	6.66e-05
898	9e-05
910	0.0001377
922	0.0001827
934	0.0001422
946	0.0002043
958	0.000189
970	0.0002088
982	0.0002826
994	0.0003069
1006	0.0002799
1018	0.0004437
1030	0.0004041
1042	0.0003618
1054	0.000333
1066	0.0003636
1078	0.0003375
1090	0.0003276
1102	0.0003249
1114	0.0003825
1126	0.0004851
1138	0.0005904
1150	0.0005328
1162	0.0005913
1174	0.0005463
1186	0.0005022
1198	0.0004905
1210	0.0005967
1222	0.0010467
1234	0.0021357
1246	0.0034173
1258	0.0031788
1270	0.002736
1282	0.002187
1294	0.0017622
1306	0.0015651
1318	0.0012096
1330	0.0011475
1342	0.0017937
1354	0.0028071
1366	0.0025137
1378	0.0018081
1390	0.0019845
1402	0.0024975
1414	0.0013797
1426	0.0010926
1438	0.000972
1450	0.001368
1462	0.0016542
1474	0.0017685
1486	0.0024777
1498	0.0045378
1510	0.0031752
1522	0.0024426
1534	0.0016191
1546	0.001215
1558	0.0008946
1570	0.0007407
1582	0.0008613
1594	0.0013446
1606	0.0008676
1618	0.000522
1630	0.0005112
1642	0.0006345
1654	0.0010332
1666	0.0017775
1678	0.001989
1690	0.0033669
1702	0.0083169
1714	0.0069759
1726	0.0046881
1738	0.0024948
1750	0.0010584
1762	0.0006066
1774	0.0004248
1786	0.000387
1798	0.0003168
1810	0.000216
1822	0.0001584
1834	0.0001521
1846	0.000153
1858	0.0001359
1870	0.000126
1882	0.0001062
1894	9e-05
1906	9.36e-05
1918	0.0001053
1930	0.0001287
1942	0.0001314
1954	0.0001116
1966	7.56e-05
1978	6.3e-05
1990	6.75e-05
2002	5.76e-05
2014	7.29e-05
2026	5.13e-05
2038	6.84e-05
2050	5.58e-05
2062	5.67e-05
2074	4.86e-05
2086	6.21e-05
2098	4.14e-05
2110	3.06e-05
2122	4.14e-05
2134	6.57e-05
2146	4.41e-05
2158	4.95e-05
2170	4.41e-05
2182	4.68e-05
2194	5.4e-05
2206	3.33e-05
2218	4.95e-05
2230	2.88e-05
2242	2.34e-05
2254	3.96e-05
2266	2.79e-05
2278	3.42e-05
2290	5.58e-05
2302	3.6e-05
2314	5.67e-05
2326	8.19e-05
2338	4.32e-05
2350	6.12e-05
2362	3.87e-05
2374	4.86e-05
2386	2.97e-05
2398	1.8e-05
2410	3.69e-05
2422	6.21e-05
2434	5.58e-05
2446	6.57e-05
2458	5.85e-05
2470	4.14e-05
2482	4.05e-05
2494	3.6e-05
2506	5.85e-05
2518	3.42e-05
2530	2.97e-05
2542	2.61e-05
2554	3.42e-05
2566	3.33e-05
2578	2.07e-05
2590	6.03e-05
2602	5.58e-05
2614	3.15e-05
2626	4.23e-05
2638	3.33e-05
2650	2.52e-05
2662	5.76e-05
2674	4.68e-05
2686	1.53e-05
2698	3.15e-05
2710	4.68e-05
2722	5.67e-05
2734	2.97e-05
2746	6.3e-05
2758	3.87e-05
2770	6.39e-05
2782	7.83e-05
2794	0.0001305
2806	0.0001062
2818	0.0001539
2830	9.36e-05
2842	0.0001098
2854	0.0001692
2866	0.0001863
2878	0.0002808
2890	0.000405
2902	0.0004761
2914	0.0004212
2926	0.0005058
2938	0.0006408
2950	0.0004086
2962	0.0003114
2974	0.0003069
2986	0.0004437
2998	0.0003447
3010	0.0002862
3022	0.0003501
3034	0.0003609
3046	0.0004257
3058	0.0003942
3070	0.0005391
3082	0.0005292
3094	0.0002907
3106	0.0002043
3118	0.0001224
3130	8.19e-05
3142	0.0001044
3154	6.21e-05
3166	6.03e-05
3178	2.07e-05
3190	6.3e-05
3202	8.19e-05
3214	8.46e-05
3226	8.73e-05
3238	8.82e-05
3250	4.59e-05
3262	7.02e-05
3274	5.58e-05
3286	5.76e-05
3298	7.83e-05
3310	7.65e-05
3322	0.0001251
3334	5.49e-05
3346	0.0001152
3358	0.0001953
3370	0.0001845
3382	0.0002934
3394	0.0004068
3406	0.0007515
3418	0.0004815
3430	0.0002052
3442	0.0001809
3454	0.0001125
3466	0.0001026
3478	0.0001215
3490	4.14e-05
3502	8.01e-05
3514	8.82e-05
3526	5.58e-05
3538	3.87e-05
3550	9e-05
3562	0.0001143
3574	5.58e-05
3586	7.38e-05
3598	8.91e-05
3610	8.37e-05
3622	0.0001035
3634	9.27e-05
3646	3.78e-05
3658	2.7e-05
3670	0.0001404
3682	5.04e-05
3694	3.87e-05
3706	5.76e-05
3718	9.18e-05
3730	5.67e-05
3742	8.64e-05
3754	6.3e-05
3766	6.03e-05
3778	7.29e-05
3790	7.11e-05
3802	1.8e-05
3814	1.8e-06
3826	2.34e-05
3838	4.68e-05
