Infrared Spectrum: N-PHENYL SUCCINIMIDE
Formula: C10 H9 N O2
CAS: 83-25-0
State: SOLID (MINERAL OIL MULL)
Class: COBLENTZ
Instrument: Not specified, most likely a prism, grating, or hybrid spectrometer.
Sampling: TRANSMISSION
Resolution: 4
Origin: DOW CHEMICAL COMPANY
MICROMETERS	TRANSMITTANCE
1.993	0.867
2.03418	0.866
2.07535	0.864
2.11653	0.867
2.15771	0.871
2.19889	0.869
2.24006	0.867
2.28124	0.864
2.32242	0.862
2.3636	0.866
2.40477	0.873
2.44595	0.881
2.48713	0.891
2.52831	0.895
2.56948	0.897
2.61066	0.895
2.65184	0.902
2.69302	0.898
2.73419	0.895
2.77537	0.891
2.81655	0.886
2.85773	0.871
2.8989	0.866
2.94008	0.862
2.98126	0.813
3.02244	0.814
3.06361	0.866
3.10479	0.869
3.14597	0.878
3.18714	0.883
3.22832	0.876
3.2695	0.857
3.31068	0.862
3.35185	0.761
3.39303	0.468
3.43421	0.499
3.47539	0.619
3.51656	0.782
3.55774	0.883
3.59892	0.91
3.6401	0.914
3.68127	0.912
3.72245	0.919
3.76363	0.917
3.80481	0.919
3.84598	0.924
3.88716	0.926
3.92834	0.938
3.96952	0.934
4.01069	0.939
4.05187	0.936
4.09305	0.936
4.13423	0.938
4.1754	0.945
4.21658	0.955
4.25776	0.95
4.29893	0.953
4.34011	0.951
4.38129	0.955
4.42247	0.953
4.46364	0.951
4.50482	0.955
4.546	0.958
4.58718	0.957
4.62835	0.953
4.66953	0.955
4.71071	0.958
4.75189	0.958
4.79306	0.953
4.83424	0.96
4.87542	0.962
4.9166	0.965
4.95777	0.969
4.99895	0.965
5.04013	0.957
5.08131	0.962
5.12248	0.953
5.16366	0.96
5.20484	0.962
5.24601	0.953
5.28719	0.953
5.32837	0.962
5.36955	0.96
5.41072	0.953
5.4519	0.96
5.49308	0.934
5.53426	0.941
5.57543	0.941
5.61661	0.879
5.65779	0.898
5.69897	0.905
5.74014	0.849
5.78132	0.699
5.8225	0.442
5.86368	0.147
5.90485	0.524
5.94603	0.751
5.98721	0.802
6.02839	0.696
6.06956	0.857
6.11074	0.907
6.15192	0.915
6.1931	0.921
6.23427	0.842
6.27545	0.821
6.31663	0.943
6.3578	0.96
6.39898	0.955
6.44016	0.933
6.48134	0.857
6.52251	0.742
6.56369	0.787
6.60487	0.855
6.64605	0.704
6.68722	0.751
6.7284	0.881
6.76958	0.871
6.81076	0.794
6.85193	0.753
6.89311	0.753
6.93429	0.777
6.97547	0.843
7.01664	0.811
7.05782	0.883
7.099	0.838
7.14018	0.643
7.18135	0.416
7.22253	0.581
7.26371	0.766
7.30489	0.852
7.34606	0.895
7.38724	0.902
7.42842	0.854
7.46959	0.849
7.51077	0.891
7.55195	0.907
7.59313	0.924
7.6343	0.914
7.67548	0.876
7.71666	0.849
7.75784	0.83
7.79901	0.919
7.84019	0.939
7.88137	0.955
7.92255	0.936
7.96372	0.921
8.0049	0.921
8.04608	0.926
8.08726	0.924
8.12843	0.902
8.16961	0.919
8.21079	0.907
8.25197	0.862
8.29314	0.768
8.33432	0.607
8.3755	0.36
8.41668	0.286
8.45785	0.559
8.49903	0.703
8.54021	0.751
8.58138	0.802
8.62256	0.814
8.66374	0.804
8.70492	0.759
8.74609	0.782
8.78727	0.855
8.82845	0.869
8.86963	0.874
8.9108	0.881
8.95198	0.888
8.99316	0.895
9.03434	0.893
9.07551	0.897
9.11669	0.907
9.15787	0.909
9.19905	0.912
9.24022	0.912
9.2814	0.893
9.32258	0.862
9.36376	0.885
9.40493	0.917
9.44611	0.934
9.48729	0.927
9.52847	0.931
9.56964	0.933
9.61082	0.933
9.652	0.922
9.69317	0.907
9.73435	0.888
9.77553	0.897
9.81671	0.907
9.85788	0.917
9.89906	0.922
9.94024	0.922
9.98142	0.879
10.0226	0.905
10.0638	0.929
10.1049	0.946
10.1461	0.953
10.1873	0.955
10.2285	0.958
10.2697	0.957
10.3108	0.95
10.352	0.951
10.3932	0.945
10.4344	0.943
10.4755	0.962
10.5167	0.963
10.5579	0.967
10.5991	0.967
10.6403	0.965
10.6814	0.969
10.7226	0.972
10.7638	0.953
10.805	0.879
10.8461	0.897
10.8873	0.958
10.9285	0.967
10.9697	0.974
11.0109	0.977
11.052	0.974
11.0932	0.958
11.1344	0.955
11.1756	0.965
11.2167	0.97
11.2579	0.972
11.2991	0.969
11.3403	0.972
11.3814	0.972
11.4226	0.975
11.4638	0.975
11.505	0.972
11.5462	0.972
11.5873	0.969
11.6285	0.967
11.6697	0.967
11.7109	0.962
11.752	0.969
11.7932	0.974
11.8344	0.965
11.8756	0.963
11.9168	0.958
11.9579	0.957
11.9991	0.962
12.0403	0.957
12.0815	0.943
12.1226	0.924
12.1638	0.878
12.205	0.806
12.2462	0.742
12.2874	0.799
12.3285	0.885
12.3697	0.922
12.4109	0.939
12.4521	0.95
12.4932	0.948
12.5344	0.943
12.5756	0.934
12.6168	0.943
12.6579	0.951
12.6991	0.945
12.7403	0.943
12.7815	0.943
12.8227	0.945
12.8638	0.939
12.905	0.936
12.9462	0.915
12.9874	0.898
13.0285	0.797
13.0697	0.706
13.1109	0.74
13.1521	0.802
13.1933	0.819
13.2344	0.835
13.2756	0.84
13.3168	0.85
13.358	0.864
13.3991	0.869
13.4403	0.871
13.4815	0.871
13.5227	0.871
13.5639	0.871
13.605	0.866
13.6462	0.857
13.6874	0.85
13.7286	0.84
13.7697	0.833
13.8109	0.826
13.8521	0.816
13.8933	0.806
13.9344	0.799
13.9756	0.787
14.0168	0.775
14.058	0.759
14.0992	0.728
14.1403	0.692
14.1815	0.629
14.2227	0.572
14.2639	0.538
14.305	0.512
14.3462	0.511
14.3874	0.554
14.4286	0.62
14.4698	0.674
14.5109	0.703
14.5521	0.711
14.5933	0.715
14.6345	0.706
14.6756	0.696
14.7168	0.674
14.758	0.643
14.7992	0.615
14.8404	0.581
14.8815	0.56
14.9227	0.543
14.9639	0.547
15.0051	0.567
15.0462	0.588
15.0874	0.596
15.1286	0.607
15.1698	0.614
15.2109	0.615
15.2521	0.619
15.2933	0.619
15.3345	0.617
15.3757	0.612
15.4168	0.603
15.458	0.598
15.4992	0.59
15.5404	0.588
15.5815	0.584
15.6227	0.578
15.6639	0.569
15.7051	0.56
15.7463	0.555
15.7874	0.554
15.8286	0.554
15.8698	0.554
