Infrared Spectrum: 2,6-Dichlorobenzaldehyde
Formula: C 7 H 4 Cl 2 O
CAS: 83-38-5
State: gas
Origin: EPA-IR VAPOR PHASE LIBRARY
1/CM	ABSORBANCE
549.8	0.0009169
559.445	0.00091
569.09	0.0009303
578.734	0.0007572
588.379	0.000759
598.024	0.0009931
607.669	0.001636
617.313	0.002076
626.958	0.002876
636.603	0.004076
646.248	0.007186
655.893	0.009626
665.537	0.009006
675.182	0.007986
684.827	0.008166
694.472	0.007136
704.116	0.007236
713.761	0.008956
723.406	0.007816
733.051	0.006006
742.695	0.006646
752.34	0.011946
761.985	0.031706
771.63	0.081586
781.275	0.104506
790.919	0.046516
800.564	0.018516
810.209	0.013296
819.854	0.013536
829.498	0.020166
839.143	0.035056
848.788	0.034446
858.433	0.016076
868.078	0.006696
877.722	0.004176
887.367	0.003466
897.012	0.002916
906.657	0.002576
916.301	0.002256
925.946	0.003266
935.591	0.003846
945.236	0.003696
954.88	0.003286
964.525	0.003376
974.17	0.003206
983.815	0.002726
993.46	0.002386
1003.1	0.002626
1012.75	0.002666
1022.39	0.001796
1032.04	0.0009359
1041.68	0.0009874
1051.33	0.001286
1060.97	0.002876
1070.62	0.004776
1080.26	0.007746
1089.91	0.016636
1099.55	0.024956
1109.2	0.017086
1118.84	0.004366
1128.49	0.002896
1138.13	0.003396
1147.78	0.006626
1157.42	0.012036
1167.07	0.020566
1176.71	0.033266
1186.36	0.044616
1196	0.046226
1205.64	0.030246
1215.29	0.011316
1224.93	0.004566
1234.58	0.003186
1244.22	0.003366
1253.87	0.004606
1263.51	0.005516
1273.16	0.004216
1282.8	0.002396
1292.45	0.002006
1302.09	0.002306
1311.74	0.002636
1321.38	0.002656
1331.03	0.002646
1340.67	0.003066
1350.32	0.003756
1359.96	0.004626
1369.61	0.005726
1379.25	0.008946
1388.9	0.018736
1398.54	0.023826
1408.18	0.019016
1417.83	0.027536
1427.47	0.063676
1437.12	0.068876
1446.76	0.027746
1456.41	0.007906
1466.05	0.004626
1475.7	0.004136
1485.34	0.004826
1494.99	0.006256
1504.63	0.006056
1514.28	0.004656
1523.92	0.004466
1533.57	0.006146
1543.21	0.013056
1552.86	0.036756
1562.5	0.075066
1572.15	0.073046
1581.79	0.042126
1591.44	0.019586
1601.08	0.007886
1610.73	0.004736
1620.37	0.004096
1630.01	0.004266
1639.66	0.004826
1649.3	0.006026
1658.95	0.008446
1668.59	0.012056
1678.24	0.015586
1687.88	0.019516
1697.53	0.023726
1707.17	0.035936
1716.82	0.085516
1726.46	0.152486
1736.11	0.123916
1745.75	0.033156
1755.4	0.015716
1765.04	0.013206
1774.69	0.010096
1784.33	0.006396
1793.98	0.003596
1803.62	0.002096
1813.27	0.001796
1822.91	0.001616
1832.55	0.001416
1842.2	0.001746
1851.84	0.002646
1861.49	0.002796
1871.13	0.001876
1880.78	0.001206
1890.42	0.0010519
1900.07	0.0010991
1909.71	0.001266
1919.36	0.001836
1929	0.002956
1938.65	0.003066
1948.29	0.002196
1957.94	0.001316
1967.58	0.000923
1977.23	0.0006338
1986.87	0.0007185
1996.52	0.0007323
2006.16	0.0006719
2015.81	0.0007616
2025.45	0.0007952
2035.1	0.0007834
2044.74	0.0007023
2054.38	0.0005151
2064.03	0.0004386
2073.67	0.0004352
2083.32	0.0005435
2092.96	0.0004305
2102.61	0.000468
2112.25	0.0003697
2121.9	0.0004124
2131.54	0.0003973
2141.19	0.0003525
2150.83	0.0003687
2160.48	0.0002708
2170.12	0.0003863
2179.77	0.0003886
2189.41	0.0003037
2199.06	0.000473
2208.7	0.0004684
2218.35	0.0003862
2227.99	0.000531
2237.64	0.0005678
2247.28	0.0006008
2256.92	0.0006265
2266.57	0.0006141
2276.21	0.0005989
2285.86	0.0004574
2295.5	0.0006072
2305.15	0.0007388
2314.79	0.0007922
2324.44	0.0007032
2334.08	0.0006214
2343.73	0.000557
2353.37	0.0004899
2363.02	0.0004813
2372.66	0.0004823
2382.31	0.0004325
2391.95	0.0004422
2401.6	0.0003099
2411.24	0.0004572
2420.89	0.0003379
2430.53	0.000524
2440.18	0.0006508
2449.82	0.0007208
2459.47	0.0006732
2469.11	0.0005047
2478.75	0.0004418
2488.4	0.0003997
2498.04	0.0005013
2507.69	0.0004672
2517.33	0.0004951
2526.98	0.0003484
2536.62	0.0006
2546.27	0.0004392
2555.91	0.0004841
2565.56	0.0004616
2575.2	0.0006075
2584.85	0.0007099
2594.49	0.0008063
2604.14	0.0008509
2613.78	0.0009488
2623.43	0.0009467
2633.07	0.001146
2642.72	0.001366
2652.36	0.001576
2662.01	0.001876
2671.65	0.001866
2681.29	0.001936
2690.94	0.002186
2700.58	0.002556
2710.23	0.002746
2719.87	0.002936
2729.52	0.003516
2739.16	0.005166
2748.81	0.007596
2758.45	0.008126
2768.1	0.006426
2777.74	0.005066
2787.39	0.004816
2797.03	0.005426
2806.68	0.007446
2816.32	0.009246
2825.97	0.009876
2835.61	0.009946
2845.26	0.012096
2854.9	0.015926
2864.55	0.017316
2874.19	0.012876
2883.84	0.008756
2893.48	0.006956
2903.12	0.005316
2912.77	0.003526
2922.41	0.002406
2932.06	0.001866
2941.7	0.001526
2951.35	0.001326
2960.99	0.0010549
2970.64	0.0011406
2980.28	0.001276
2989.93	0.0009822
2999.57	0.0007276
3009.22	0.0006838
3018.86	0.0006156
3028.51	0.0006792
3038.15	0.0008391
3047.8	0.001486
3057.44	0.002886
3067.09	0.004336
3076.73	0.004536
3086.38	0.003826
3096.02	0.002036
3105.67	0.001456
3115.31	0.001746
3124.95	0.002126
3134.6	0.001656
3144.24	0.0007936
3153.89	0.0006508
3163.53	0.0004092
3173.18	0.0004701
3182.82	0.0004486
3192.47	0.0002869
3202.11	0.000366
3211.76	0.0002602
3221.4	0.0003478
3231.05	0.00023453
3240.69	0.0005005
3250.34	0.00016815
3259.98	0.0003335
3269.63	0.0003549
3279.27	0.000355
3288.92	0.0003072
3298.56	0.0002986
3308.21	0.0002496
3317.85	0.0002525
3327.49	0.00033
3337.14	0.0004398
3346.78	0.0003103
3356.43	0.0006215
3366.07	0.0006008
3375.72	0.0005345
3385.36	0.0008219
3395.01	0.0010012
3404.65	0.001476
3414.3	0.002056
3423.94	0.002556
3433.59	0.002876
3443.23	0.002686
3452.88	0.001686
3462.52	0.001186
3472.17	0.0009586
3481.81	0.000722
3491.46	0.0004596
3501.1	0.0004376
3510.75	0.0003501
3520.39	0.0004446
3530.04	0.0004388
3539.68	0.00022895
3549.32	0.0003036
3558.97	0.0003992
3568.61	0.0002841
3578.26	0.0001675
3587.9	0.00020646
3597.55	0.0003803
3607.19	0.0003893
3616.84	0.0002631
3626.48	0.0003641
3636.13	0.0002919
3645.77	0.0005102
3655.42	0.0005204
3665.06	0.0004472
3674.71	0.0003197
3684.35	0.0003232
3694	0.00018916
3703.64	0.0002779
3713.29	0.0003203
3722.93	0.00019395
3732.58	0.0003889
3742.22	0.0003338
3751.86	0.0004493
3761.51	0.0005437
3771.15	0.0002891
3780.8	0.0003273
3790.44	0.0004224
3800.09	0.000453
3809.73	0.0003123
3819.38	0.00018335
3829.02	0.0003679
3838.67	0.0003113
3848.31	0.00016427
3857.96	0.0004522
3867.6	0.0005484
3877.25	0.0005052
3886.89	0.0004733
3896.54	0.0003664
3906.18	0.0005903
3915.83	0.0003944
3925.47	0.0004645
3935.12	0.0005571
3944.76	0.0005157
3954.41	0.0002943
3964.05	0.000155184
3973.69	0.0001015
3983.34	0.0002911
3992.98	0.00018881
