Infrared Spectrum: 1-Indanone
Formula: C 9 H 8 O
CAS: 83-33-0
State: gas
Instrument: HP-GC/MS/IRD
Origin: NIST Mass Spectrometry Data Center
1/CM	ABSORBANCE
550	0.001998
562	0.0016169
574	0.0007178
586	0.0001443
598	0
610	4.81e-05
622	0.000222
634	0.0002664
646	0.0001443
658	0.0003626
670	0.0004107
682	0.0002923
694	0.0002109
706	0.000148
718	0.0002664
730	0.0012654
742	0.0049062
754	0.0110482
766	0.0046065
778	0.0008399
790	0.0001369
802	0.000185
814	0.0004625
826	0.0010138
838	0.0006253
850	0.0001369
862	4.81e-05
874	0.0001036
886	0.0002146
898	0.0001887
910	0.0002331
922	0.0001776
934	0.0001443
946	0.0001813
958	0.000296
970	0.0004588
982	0.0005476
994	0.0010027
1006	0.0023421
1018	0.0031339
1030	0.0028675
1042	0.0017501
1054	0.0005735
1066	0.000555
1078	0.0010138
1090	0.0013579
1102	0.0010286
1114	0.0003441
1126	0.0002035
1138	0.0005883
1150	0.0010656
1162	0.0012136
1174	0.0013172
1186	0.001369
1198	0.0018019
1210	0.0014467
1222	0.0010619
1234	0.0025049
1246	0.0026418
1258	0.002442
1270	0.0050505
1282	0.0053206
1294	0.003478
1306	0.0032634
1318	0.0030414
1330	0.0019277
1342	0.0011063
1354	0.0007326
1366	0.0003848
1378	0.0002294
1390	0.0001813
1402	0.0003441
1414	0.0007992
1426	0.0008769
1438	0.0012543
1450	0.002183
1462	0.0031524
1474	0.0025049
1486	0.000962
1498	0.0004662
1510	0.0003848
1522	0.0002331
1534	0.0002109
1546	0.0002701
1558	0.0003552
1570	0.0007252
1582	0.0015577
1594	0.0030377
1606	0.0047249
1618	0.0039516
1630	0.0015836
1642	0.0006623
1654	0.0004625
1666	0.0005476
1678	0.0009361
1690	0.0017316
1702	0.0027417
1714	0.0058053
1726	0.020979
1738	0.0363007
1750	0.0262219
1762	0.006808
1774	0.0020609
1786	0.0009694
1798	0.0007918
1810	0.0007437
1822	0.0006956
1834	0.0005587
1846	0.000481
1858	0.0004403
1870	0.0003145
1882	0.0002627
1894	0.0001813
1906	0.0002368
1918	0.0003441
1930	0.0003737
1942	0.0002664
1954	0.000296
1966	0.0002997
1978	0.000148
1990	9.99e-05
2002	0.0001073
2014	0.0001184
2026	0.0001295
2038	0.0001295
2050	0.0001073
2062	9.25e-05
2074	5.18e-05
2086	3.33e-05
2098	5.55e-05
2110	5.92e-05
2122	4.81e-05
2134	4.44e-05
2146	4.81e-05
2158	4.07e-05
2170	4.07e-05
2182	3.7e-05
2194	7.03e-05
2206	8.51e-05
2218	9.62e-05
2230	7.77e-05
2242	7.4e-05
2254	8.14e-05
2266	9.62e-05
2278	0.0001295
2290	0.0001221
2302	0.0001221
2314	0.0001036
2326	7.77e-05
2338	6.66e-05
2350	6.29e-05
2362	5.92e-05
2374	7.03e-05
2386	4.44e-05
2398	4.44e-05
2410	6.66e-05
2422	6.29e-05
2434	4.81e-05
2446	4.07e-05
2458	4.81e-05
2470	4.44e-05
2482	5.55e-05
2494	2.96e-05
2506	1.85e-05
2518	0
2530	6.29e-05
2542	1.48e-05
2554	4.07e-05
2566	3.7e-05
2578	2.96e-05
2590	7.03e-05
2602	4.44e-05
2614	4.81e-05
2626	5.18e-05
2638	8.51e-05
2650	5.92e-05
2662	8.14e-05
2674	8.88e-05
2686	9.62e-05
2698	6.29e-05
2710	5.92e-05
2722	7.77e-05
2734	8.14e-05
2746	0.0001036
2758	0.000148
2770	0.0001258
2782	0.000111
2794	0.000111
2806	0.0001591
2818	0.0002516
2830	0.000259
2842	0.0004144
2854	0.0006956
2866	0.0009805
2878	0.0010693
2890	0.0008362
2902	0.0005772
2914	0.0008806
2926	0.0023606
2938	0.004551
2950	0.0037814
2962	0.0019462
2974	0.0015836
2986	0.0007289
2998	0.0003293
3010	0.0004958
3022	0.001147
3034	0.001998
3046	0.002405
3058	0.0025456
3070	0.0033041
3082	0.0030562
3094	0.0016687
3106	0.0005846
3118	0.0002072
3130	0.0001443
3142	0.0001665
3154	0.000111
3166	0.0001184
3178	0.000111
3190	0.000111
3202	0.0001073
3214	5.18e-05
3226	6.66e-05
3238	3.33e-05
3250	3.33e-05
3262	4.44e-05
3274	3.33e-05
3286	5.18e-05
3298	5.55e-05
3310	4.81e-05
3322	4.44e-05
3334	7.4e-05
3346	4.07e-05
3358	7.03e-05
3370	4.07e-05
3382	5.55e-05
3394	7.4e-05
3406	8.88e-05
3418	0.000111
3430	0.0001702
3442	0.0003478
3454	0.000555
3466	0.0006253
3478	0.0003626
3490	0.0001961
3502	0.0001591
3514	7.77e-05
3526	4.81e-05
3538	2.22e-05
3550	6.66e-05
3562	1.85e-05
3574	4.44e-05
3586	6.29e-05
3598	7.4e-05
3610	2.96e-05
3622	7.77e-05
3634	7.4e-05
3646	5.55e-05
3658	4.81e-05
3670	0
3682	6.66e-05
3694	4.07e-05
3706	5.92e-05
3718	7.77e-05
3730	5.55e-05
3742	7.4e-05
3754	8.88e-05
3766	0.0001036
3778	8.51e-05
3790	0.0001221
3802	8.14e-05
3814	8.14e-05
3826	7.77e-05
3838	0.0001147
