Infrared Spectrum: 2,4,6-Trihydroxybenzoic acid
Formula: C7 H6 O5
CAS: 83-30-7
State: gas
Origin: EPA-IR VAPOR PHASE LIBRARY
1/CM	ABSORBANCE
549.8	0.002394
559.445	0.002244
569.09	0.001684
578.734	0.001263
588.379	0.0013101
598.024	0.0011387
607.669	0.0012773
617.313	0.0012022
626.958	0.0010129
636.603	0.0008591
646.248	0.0012401
655.893	0.002614
665.537	0.004764
675.182	0.002524
684.827	0.001584
694.472	0.0006109
704.116	0.0006256
713.761	0.0006006
723.406	0.000461723
733.051	0.0005795
742.695	0.000534
752.34	0.0005645
761.985	0.0008639
771.63	0.001189
781.275	0.0013469
790.919	0.001634
800.564	0.002594
810.209	0.003564
819.854	0.004894
829.498	0.004144
839.143	0.003194
848.788	0.001824
858.433	0.0011395
868.078	0.0010513
877.722	0.0010234
887.367	0.0012669
897.012	0.0012267
906.657	0.0012872
916.301	0.0011171
925.946	0.0009256
935.591	0.0009458
945.236	0.0008747
954.88	0.0011183
964.525	0.0013377
974.17	0.002904
983.815	0.007104
993.46	0.010184
1003.1	0.010034
1012.75	0.006444
1022.39	0.002324
1032.04	0.0012106
1041.68	0.0009588
1051.33	0.000943
1060.97	0.0011713
1070.62	0.0014152
1080.26	0.001514
1089.91	0.002444
1099.55	0.003104
1109.2	0.005224
1118.84	0.011594
1128.49	0.020204
1138.13	0.029814
1147.78	0.028564
1157.42	0.020484
1167.07	0.006524
1176.71	0.003044
1186.36	0.004274
1196	0.009334
1205.64	0.014104
1215.29	0.013844
1224.93	0.009304
1234.58	0.004494
1244.22	0.002354
1253.87	0.001834
1263.51	0.001724
1273.16	0.002264
1282.8	0.003194
1292.45	0.003714
1302.09	0.003974
1311.74	0.003704
1321.38	0.003374
1331.03	0.002874
1340.67	0.002734
1350.32	0.002704
1359.96	0.001914
1369.61	0.001604
1379.25	0.001504
1388.9	0.001564
1398.54	0.001644
1408.18	0.001654
1417.83	0.0014435
1427.47	0.001504
1437.12	0.0014227
1446.76	0.0014474
1456.41	0.001784
1466.05	0.003984
1475.7	0.007814
1485.34	0.010074
1494.99	0.008904
1504.63	0.007004
1514.28	0.007004
1523.92	0.006324
1533.57	0.003154
1543.21	0.001884
1552.86	0.001534
1562.5	0.001704
1572.15	0.002434
1581.79	0.004914
1591.44	0.010404
1601.08	0.016954
1610.73	0.020554
1620.37	0.020314
1630.01	0.019574
1639.66	0.014304
1649.3	0.007444
1658.95	0.004254
1668.59	0.003624
1678.24	0.003224
1687.88	0.002234
1697.53	0.001504
1707.17	0.0012622
1716.82	0.0012062
1726.46	0.001594
1736.11	0.001734
1745.75	0.001634
1755.4	0.0012023
1765.04	0.0009312
1774.69	0.0007889
1784.33	0.0006214
1793.98	0.0005559
1803.62	0.0005621
1813.27	0.0005705
1822.91	0.0005849
1832.55	0.00050582
1842.2	0.000455824
1851.84	0.00049898
1861.49	0.0004225
1871.13	0.0004328
1880.78	0.0004187
1890.42	0.0004407
1900.07	0.000404
1909.71	0.000457668
1919.36	0.0004089
1929	0.0004309
1938.65	0.000406
1948.29	0.0003608
1957.94	0.000459918
1967.58	0.000455087
1977.23	0.00044756
1986.87	0.0004416
1996.52	0.00050474
2006.16	0.00050752
2015.81	0.0004525
2025.45	0.0003931
2035.1	0.0004045
2044.74	0.0003687
2054.38	0.0004063
2064.03	0.0003774
2073.67	0.0003803
2083.32	0.0004009
2092.96	0.0003988
2102.61	0.00047781
2112.25	0.00050431
2121.9	0.00054013
2131.54	0.0006226
2141.19	0.000664
2150.83	0.0006282
2160.48	0.0005967
2170.12	0.00045031
2179.77	0.0004423
2189.41	0.00047079
2199.06	0.00047964
2208.7	0.00051754
2218.35	0.00049574
2227.99	0.00051864
2237.64	0.000436
2247.28	0.0003814
2256.92	0.00048536
2266.57	0.00047976
2276.21	0.00048011
2285.86	0.00052842
2295.5	0.00053304
2305.15	0.00049882
2314.79	0.00048427
2324.44	0.0004471
2334.08	0.00053054
2343.73	0.000638
2353.37	0.0006751
2363.02	0.0006657
2372.66	0.0005815
2382.31	0.00045161
2391.95	0.00044805
2401.6	0.00046699
2411.24	0.0004737
2420.89	0.00047918
2430.53	0.0005893
2440.18	0.0006176
2449.82	0.00050776
2459.47	0.00047159
2469.11	0.00050694
2478.75	0.000643
2488.4	0.0007154
2498.04	0.0007632
2507.69	0.0006961
2517.33	0.00063
2526.98	0.0005239
2536.62	0.0003682
2546.27	0.0003711
2555.91	0.0003849
2565.56	0.00044586
2575.2	0.000435
2584.85	0.000325
2594.49	0.0003832
2604.14	0.0003712
2613.78	0.0004155
2623.43	0.0003934
2633.07	0.0004115
2642.72	0.000387
2652.36	0.0004357
2662.01	0.0003623
2671.65	0.0004025
2681.29	0.000308
2690.94	0.000287
2700.58	0.000263
2710.23	0.000257
2719.87	0.000298
2729.52	0.00027
2739.16	0.000273
2748.81	0.0004428
2758.45	0.000329
2768.1	0.000326
2777.74	0.000327
2787.39	0.0003704
2797.03	0.0004431
2806.68	0.0003913
2816.32	0.0004177
2825.97	0.0003602
2835.61	0.00054966
2845.26	0.0004307
2854.9	0.000424
2864.55	0.000409
2874.19	0.0004278
2883.84	0.00033
2893.48	0.000271
2903.12	0.000272
2912.77	0.000339
2922.41	0.000292
2932.06	0.000311
2941.7	0.000242
2951.35	0.000142
2960.99	0.000239
2970.64	0.000295
2980.28	0.00024
2989.93	0.0003783
2999.57	0.000334
3009.22	0.0003686
3018.86	0.0005922
3028.51	0.0005885
3038.15	0.0007763
3047.8	0.0008921
3057.44	0.0008089
3067.09	0.0007178
3076.73	0.000439
3086.38	0.000321
3096.02	0.000316
3105.67	0.000244
3115.31	0.000242
3124.95	0.000302
3134.6	0.000294
3144.24	0.000327
3153.89	0.000206
3163.53	0.000313
3173.18	0.000223
3182.82	0.000189
3192.47	0.000234
3202.11	0.000235
3211.76	0.000275
3221.4	0.000354
3231.05	0.000131
3240.69	0.000214
3250.34	0.000454791
3259.98	0.0003
3269.63	0.00028
3279.27	0.000224
3288.92	0.000175
3298.56	0.000248
3308.21	0.000245
3317.85	0.000226
3327.49	0.0003904
3337.14	0.0003852
3346.78	0.00048607
3356.43	0.0005605
3366.07	0.0003591
3375.72	0.00051196
3385.36	0.0004266
3395.01	0.00023
3404.65	0.0004354
3414.3	0.0005345
3423.94	0.00048968
3433.59	0.0003779
3443.23	0.0003541
3452.88	0.000295
3462.52	0.0004055
3472.17	0.000306
3481.81	0.000325
3491.46	0.000313
3501.1	0.000393
3510.75	0.000181
3520.39	0.0004057
3530.04	0.000399
3539.68	0.0004295
3549.32	0.0004012
3558.97	0.0003734
3568.61	0.00033
3578.26	0.000325
3587.9	0.0003586
3597.55	0.0005789
3607.19	0.00047456
3616.84	0.0007233
3626.48	0.001624
3636.13	0.005954
3645.77	0.014984
3655.42	0.015684
3665.06	0.009434
3674.71	0.001644
3684.35	0.000345
3694	0
3703.64	0.0003541
3713.29	0.000253
3722.93	0.000287
3732.58	0.000328
3742.22	0.000166
3751.86	0.000171
3761.51	7.6e-05
3771.15	0.000207
3780.8	0.000225
3790.44	0.000319
3800.09	0.000219
3809.73	0.000302
3819.38	0.000165
3829.02	0.00014
3838.67	0.000216
3848.31	0.000459992
3857.96	0.000321
3867.6	0.00029
3877.25	0.000314
3886.89	0.00045239
3896.54	0.000229
3906.18	0.000377
3915.83	0.000188
3925.47	0.000331
3935.12	0.000329
3944.76	0.000294
3954.41	0.00051864
3964.05	0.0003943
3973.69	0.0004066
3983.34	0.0004269
3992.98	0.00047709
