Infrared Spectrum: 1,4-PREGNADIENE-3,20-DIONE, 11Beta,17Alpha,21-TRIHYDROXY-6Alpha-METHYL-
Formula: C22 H30 O5
CAS: 83-43-2
State: SOLID (KBr DISC) VS KBr
Melting point: 228-237 C
Class: COBLENTZ III
Instrument: PERKIN-ELMER 21 (GRATING)
Instrument parameters: FILTER AT ABOUT 10 MICRONS
Sampling: TRANSMISSION
Resolution: 2
1/CM	TRANSMITTANCE
4000	0.9711
3991	0.9704
3982	0.9698
3973	0.9693
3964	0.9686
3955	0.968
3946	0.9674
3937	0.9668
3928	0.9668
3919	0.9668
3910	0.9667
3901	0.9667
3892	0.9666
3883	0.9665
3874	0.9665
3865	0.9665
3856	0.9665
3847	0.9665
3838	0.9664
3829	0.9664
3820	0.9664
3811	0.9664
3802	0.9662
3793	0.966
3784	0.9659
3775	0.9657
3766	0.9657
3757	0.9657
3748	0.9658
3739	0.9658
3730	0.9659
3721	0.9659
3712	0.9655
3703	0.9649
3694	0.9643
3685	0.963
3676	0.9617
3667	0.9597
3658	0.9571
3649	0.9528
3640	0.9452
3631	0.936
3622	0.9214
3613	0.9118
3604	0.8955
3595	0.8767
3586	0.8603
3577	0.82
3568	0.7887
3559	0.7608
3550	0.7328
3541	0.7046
3532	0.6762
3523	0.6478
3514	0.6191
3505	0.5904
3496	0.5641
3487	0.5384
3478	0.5243
3469	0.5086
3460	0.4883
3451	0.4666
3442	0.4496
3433	0.4325
3424	0.4247
3415	0.4221
3406	0.4212
3397	0.4208
3388	0.4236
3379	0.435
3370	0.4497
3361	0.4649
3352	0.4812
3343	0.5027
3334	0.5264
3325	0.5527
3316	0.5726
3307	0.591
3298	0.6073
3289	0.6234
3280	0.6345
3271	0.6451
3262	0.6558
3253	0.6701
3244	0.6894
3235	0.7083
3226	0.7254
3217	0.7375
3208	0.7495
3199	0.7617
3190	0.7742
3181	0.7868
3172	0.7967
3163	0.806
3154	0.8154
3145	0.8259
3136	0.8368
3127	0.8495
3118	0.8633
3109	0.8713
3100	0.8763
3091	0.8803
3082	0.8841
3073	0.8867
3064	0.8881
3055	0.8883
3046	0.8875
3037	0.8863
3028	0.881
3019	0.8689
3010	0.8505
3001	0.8161
2992	0.748
2983	0.7075
2974	0.6807
2965	0.6599
2956	0.6447
2947	0.6322
2938	0.6244
2929	0.6227
2920	0.6225
2911	0.6234
2902	0.6285
2893	0.6362
2884	0.6505
2875	0.673
2866	0.6949
2857	0.7117
2848	0.7288
2839	0.7461
2830	0.7665
2821	0.7896
2812	0.8135
2803	0.8425
2794	0.8611
2785	0.8733
2776	0.884
2767	0.8878
2758	0.8885
2749	0.8895
2740	0.8909
2731	0.8924
2722	0.8939
2713	0.8954
2704	0.897
2695	0.8986
2686	0.9001
2677	0.9017
2668	0.9033
2659	0.9049
2650	0.9065
2641	0.9081
2632	0.9096
2623	0.9111
2614	0.9125
2605	0.9141
2596	0.9157
2587	0.9171
2578	0.9188
2569	0.9202
2560	0.9217
2551	0.9231
2542	0.9244
2533	0.9259
2524	0.9273
2515	0.9288
2506	0.9302
2497	0.9308
2488	0.9314
2479	0.932
2470	0.9325
2461	0.9332
2452	0.9338
2443	0.9344
2434	0.935
2425	0.9355
2416	0.9361
2407	0.9368
2398	0.9375
2389	0.9381
2380	0.9384
2371	0.9381
2362	0.9378
2353	0.9375
2344	0.9375
2335	0.9373
2326	0.9371
2317	0.9371
2308	0.9374
2299	0.9378
2290	0.9383
2281	0.9388
2272	0.9392
2263	0.9397
2254	0.94
2245	0.9402
2236	0.9405
2227	0.9408
2218	0.941
2209	0.9413
2200	0.9416
2191	0.9418
2182	0.9421
2173	0.9425
2164	0.943
2155	0.9434
2146	0.9438
2137	0.9442
2128	0.9446
2119	0.945
2110	0.9455
2101	0.9459
2092	0.9465
2083	0.9468
2074	0.9474
2065	0.9478
2056	0.948
2047	0.9481
2038	0.9482
2029	0.9483
2020	0.9484
2011	0.9485
2002	0.9486
1993	0.9493
1984	0.9501
1975	0.9509
1966	0.9517
1957	0.9525
1948	0.9534
1939	0.9536
1930	0.9538
1921	0.9541
1912	0.9543
1903	0.9538
1894	0.9534
1885	0.9528
1876	0.9525
1867	0.9521
1858	0.9517
1849	0.9483
1840	0.9452
1831	0.9427
1822	0.9414
1813	0.941
1804	0.9405
1795	0.9394
1786	0.938
1777	0.9349
1768	0.9295
1759	0.92
1750	0.9046
1741	0.8662
1732	0.7145
1723	0.5931
1714	0.5473
1705	0.6618
1696	0.7901
1687	0.7915
1678	0.6555
1669	0.3777
1660	0.2302
1651	0.3875
1642	0.6072
1633	0.6934
1624	0.566
1615	0.466
1606	0.4509
1597	0.4985
1588	0.7382
1579	0.7978
1570	0.8371
1561	0.8566
1552	0.8761
1543	0.8862
1534	0.8928
1525	0.8992
1516	0.9009
1507	0.9039
1498	0.9071
1489	0.8897
1480	0.8339
1471	0.7635
1462	0.7094
1453	0.7108
1444	0.7283
1435	0.7403
1426	0.7408
1417	0.6728
1408	0.6487
1399	0.6536
1390	0.668
1381	0.6911
1372	0.6897
1363	0.7111
1354	0.745
1345	0.77
1336	0.7761
1327	0.7491
1318	0.7224
1309	0.6142
1300	0.6657
1291	0.6921
1282	0.7011
1273	0.7101
1264	0.7157
1255	0.7536
1246	0.7474
1237	0.6671
1228	0.7208
1219	0.7664
1210	0.7912
1201	0.7907
1192	0.7969
1183	0.8175
1174	0.8154
1165	0.7965
1156	0.7961
1147	0.7811
1138	0.6783
1129	0.7045
1120	0.6198
1111	0.5855
1102	0.6387
1093	0.661
1084	0.7108
1075	0.7281
1066	0.7386
1057	0.6503
1048	0.6654
1039	0.6546
1030	0.6322
1021	0.7301
1012	0.7842
1003	0.7468
994	0.8278
985	0.8653
976	0.8302
967	0.8397
958	0.8367
949	0.8467
940	0.8111
931	0.8095
922	0.8076
913	0.6599
904	0.6646
895	0.664
886	0.6365
877	0.8343
868	0.8606
859	0.8508
850	0.9007
841	0.9011
832	0.8842
823	0.8142
814	0.8485
805	0.8921
796	0.8981
787	0.8993
778	0.8689
769	0.8628
760	0.8768
751	0.8688
742	0.8634
733	0.8839
724	0.8884
715	0.8567
706	0.8098
697	0.8348
688	0.8282
679	0.8242
