Infrared Spectrum: 2-Hydroxy-3-methylbenzoic acid
Formula: C 8 H 8 O 3
CAS: 83-40-9
State: gas
Origin: EPA-IR VAPOR PHASE LIBRARY
1/CM	ABSORBANCE
501.5	0.0023486
513.074	0.0028786
524.648	0.0046286
536.222	0.0068086
547.796	0.0079686
559.37	0.0098786
570.944	0.0127886
582.518	0.0090986
594.092	0.0044486
605.666	0.0031286
617.24	0.0064586
628.814	0.0081486
640.388	0.0034086
651.962	0.0023986
663.536	0.0025886
675.11	0.0034786
686.684	0.0088786
698.258	0.0160686
709.832	0.0111186
721.406	0.0066386
732.98	0.0075286
744.554	0.0132186
756.128	0.0222086
767.702	0.0100686
779.276	0.0026386
790.85	0.0013686
802.423	0.0015586
813.997	0.0021786
825.571	0.0022586
837.145	0.0030286
848.719	0.0025886
860.293	0.0010886
871.867	0.0007763
883.441	0.0008496
895.015	0.0008592
906.589	0.0006449
918.163	0.0005134
929.737	0.0005376
941.311	0.0005551
952.885	0.0006536
964.459	0.0007994
976.033	0.0010986
987.607	0.0015586
999.181	0.0019386
1010.76	0.0022186
1022.33	0.0020586
1033.9	0.0019986
1045.48	0.0029386
1057.05	0.0048086
1068.63	0.0076486
1080.2	0.0109986
1091.77	0.0151986
1103.35	0.0214286
1114.92	0.0416286
1126.49	0.0651086
1138.07	0.0394986
1149.64	0.0091786
1161.22	0.0053986
1172.79	0.0062886
1184.36	0.0110986
1195.94	0.0219786
1207.51	0.0185686
1219.09	0.0094386
1230.66	0.0113786
1242.23	0.0154386
1253.81	0.0179386
1265.38	0.0150186
1276.96	0.0113286
1288.53	0.0125086
1300.1	0.0114686
1311.68	0.0071786
1323.25	0.0063586
1334.83	0.0071186
1346.4	0.0083986
1357.97	0.0121286
1369.55	0.0164986
1381.12	0.0162086
1392.7	0.0160786
1404.27	0.0175586
1415.84	0.0160686
1427.42	0.0154586
1438.99	0.0179786
1450.57	0.0179886
1462.14	0.0155186
1473.71	0.0114886
1485.29	0.0073186
1496.86	0.0045586
1508.44	0.0026386
1520.01	0.0021386
1531.58	0.0019186
1543.16	0.0016886
1554.73	0.0016886
1566.31	0.0018386
1577.88	0.0022186
1589.45	0.0037786
1601.03	0.0077686
1612.6	0.0105686
1624.18	0.0065886
1635.75	0.0035486
1647.32	0.0028986
1658.9	0.0037886
1670.47	0.0057986
1682.05	0.0105786
1693.62	0.0298886
1705.19	0.0623886
1716.77	0.0542086
1728.34	0.0185386
1739.92	0.0070786
1751.49	0.0047886
1763.06	0.0058786
1774.64	0.0050386
1786.21	0.0030586
1797.79	0.0019586
1809.36	0.0014986
1820.93	0.0014986
1832.51	0.0012486
1844.08	0.0008194
1855.66	0.0007363
1867.23	0.0010334
1878.8	0.001058
1890.38	0.0008191
1901.95	0.0007454
1913.53	0.0008334
1925.1	0.0008537
1936.67	0.0005911
1948.25	0.000415
1959.82	0.000397
1971.4	0.0003664
1982.97	0.0003438
1994.54	0.0003371
2006.12	0.0003884
2017.69	0.0004002
2029.27	0.0003668
2040.84	0.0003044
2052.41	0.0002944
2063.99	0.0003493
2075.56	0.0004337
2087.14	0.0004704
2098.71	0.0004122
2110.28	0.0003278
2121.86	0.0003111
2133.43	0.0002886
2145.01	0.0002716
2156.58	0.000249
2168.15	0.00022
2179.73	0.0002247
2191.3	0.0002244
2202.88	0.0002383
2214.45	0.0002626
2226.02	0.0003193
2237.6	0.0003672
2249.17	0.0003758
2260.74	0.0003935
2272.32	0.000341
2283.89	0.0003708
2295.47	0.0004078
2307.04	0.0004138
2318.61	0.0004614
2330.19	0.0004437
2341.76	0.000389
2353.34	0.000373
2364.91	0.0004251
2376.48	0.0004351
2388.06	0.000462
2399.63	0.0005033
2411.21	0.0004007
2422.78	0.0003608
2434.35	0.0003849
2445.93	0.000404
2457.5	0.0004164
2469.08	0.0004063
2480.65	0.0004131
2492.22	0.0004713
2503.8	0.0004859
2515.37	0.0004685
2526.95	0.000406
2538.52	0.0004535
2550.09	0.0004902
2561.67	0.0004815
2573.24	0.0004867
2584.82	0.0004539
2596.39	0.0004834
2607.96	0.0004592
2619.54	0.0004506
2631.11	0.0004493
2642.69	0.0004584
2654.26	0.0004827
2665.83	0.0004923
2677.41	0.0004715
2688.98	0.0004798
2700.56	0.0004868
2712.13	0.0005285
2723.7	0.0005308
2735.28	0.0005986
2746.85	0.0006545
2758.43	0.0005679
2770	0.0005421
2781.57	0.0005895
2793.15	0.0006526
2804.72	0.0007829
2816.3	0.0008013
2827.87	0.0009105
2839.44	0.0010046
2851.02	0.0012286
2862.59	0.0016986
2874.17	0.0020386
2885.74	0.0019586
2897.31	0.0018786
2908.89	0.0020786
2920.46	0.0029886
2932.04	0.0044886
2943.61	0.0042786
2955.18	0.0030786
2966.76	0.0030886
2978.33	0.0030486
2989.91	0.0029586
3001.48	0.0025586
3013.05	0.0027086
3024.63	0.0032886
3036.2	0.0035686
3047.78	0.0035886
3059.35	0.0037086
3070.92	0.0033786
3082.5	0.0028886
3094.07	0.0025886
3105.65	0.0019786
3117.22	0.0014586
3128.79	0.0013086
3140.37	0.0013086
3151.94	0.0014286
3163.52	0.0016886
3175.09	0.0022486
3186.66	0.0030986
3198.24	0.0042186
3209.81	0.0057886
3221.39	0.0076386
3232.96	0.0091486
3244.53	0.0099586
3256.11	0.0099286
3267.68	0.0092386
3279.26	0.0081086
3290.83	0.0069486
3302.4	0.0061286
3313.98	0.0055386
3325.55	0.0050186
3337.13	0.0044786
3348.7	0.0038986
3360.27	0.0034186
3371.85	0.0029186
3383.42	0.0025686
3395	0.0024086
3406.57	0.0022986
3418.14	0.0021986
3429.72	0.0020486
3441.29	0.0018786
3452.86	0.0017386
3464.44	0.0016086
3476.01	0.0014986
3487.59	0.0014186
3499.16	0.0014286
3510.73	0.0019686
3522.31	0.0027386
3533.88	0.0027186
3545.46	0.0021786
3557.03	0.0026086
3568.6	0.0112086
3580.18	0.0267486
3591.75	0.0132486
3603.33	0.0015486
3614.9	0.0007316
3626.47	0.0005986
3638.05	0.0005225
3649.62	0.0004028
3661.2	0.0002935
3672.77	0.0001919
3684.34	0.000184
3695.92	0.00017598
3707.49	0.00010234
3719.07	3.88e-05
3730.64	8.3898e-05
3742.21	7.464e-05
3753.79	5.75e-05
3765.36	1.13e-05
3776.94	8.0581e-05
3788.51	8.0838e-05
3800.08	2.76e-05
3811.66	1.57e-05
3823.23	7.724e-05
3834.81	9.799e-05
3846.38	5.39e-05
3857.95	8.8424e-05
3869.53	7.677e-05
3881.1	7.89865e-05
3892.68	0.00016658
3904.25	0.00012454
3915.82	1.65e-05
3927.4	8.2379e-05
3938.97	7.296e-05
3950.55	0.00010658
3962.12	1.84e-05
3973.69	7.564e-05
3985.27	9.509e-05
3996.84	9.953e-05
