Infrared Spectrum: 5-Amino-1-naphthol
Formula: C 10 H 9 N O
CAS: 83-55-6
State: gas
Instrument: HP-GC/MS/IRD
Origin: NIST Mass Spectrometry Data Center
1/CM	ABSORBANCE
550	0.00143
562	0.001482
574	0.0016731
586	0.0019409
598	0.0016614
610	0.0014287
622	0.0014209
634	0.0012012
646	0.0012415
658	0.0014014
670	0.0013455
682	0.0012662
694	0.0013299
706	0.0014742
718	0.0016068
730	0.0017316
742	0.0034307
754	0.0092885
766	0.0128232
778	0.0063505
790	0.0023634
802	0.0010088
814	0.0007709
826	0.0006383
838	0.0005603
850	0.0007215
862	0.0007956
874	0.0009165
886	0.0008268
898	0.0010374
910	0.0022152
922	0.0049985
934	0.0031083
946	0.0004238
958	0.0001651
970	4.68e-05
982	0.0001079
994	0.0001079
1006	8.06e-05
1018	0.0001885
1030	0.000533
1042	0.0010127
1054	0.001222
1066	0.0017186
1078	0.0013117
1090	0.0005473
1102	0.0006799
1114	0.0010569
1126	0.0017069
1138	0.0024492
1150	0.0031473
1162	0.003237
1174	0.0035568
1186	0.0034047
1198	0.0033592
1210	0.0042445
1222	0.0045617
1234	0.0044031
1246	0.0030225
1258	0.0028613
1270	0.0043264
1282	0.0054054
1294	0.0027651
1306	0.0010998
1318	0.0007046
1330	0.0006682
1342	0.0011271
1354	0.0028626
1366	0.0030121
1378	0.0017498
1390	0.0016757
1402	0.004303
1414	0.0111956
1426	0.0095381
1438	0.0041587
1450	0.0018954
1462	0.0007098
1474	0.0005954
1486	0.0007878
1498	0.0023829
1510	0.007332
1522	0.0085176
1534	0.0032929
1546	0.0011609
1558	0.0009334
1570	0.0013741
1582	0.0023998
1594	0.0044746
1606	0.0057408
1618	0.0069017
1630	0.0063063
1642	0.0030706
1654	0.0012532
1666	0.0007254
1678	0.0005135
1690	0.0004836
1702	0.0004719
1714	0.0004706
1726	0.0004316
1738	0.000377
1750	0.0001937
1762	0.0001469
1774	0.0001066
1786	0.0001677
1798	0.0002119
1810	0.0002223
1822	0.0002106
1834	0.00013
1846	6.24e-05
1858	0.0001183
1870	0.000182
1882	0.0003978
1894	0.0004875
1906	0.0003783
1918	0.0001911
1930	0.0001196
1942	4.42e-05
1954	5.07e-05
1966	4.16e-05
1978	1.82e-05
1990	3.9e-06
2002	1.82e-05
2014	3.64e-05
2026	0
2038	1.17e-05
2050	2.73e-05
2062	3.51e-05
2074	3.64e-05
2086	4.03e-05
2098	7.02e-05
2110	6.63e-05
2122	4.81e-05
2134	9.49e-05
2146	0.0001105
2158	0.0001313
2170	0.00013
2182	0.0001105
2194	6.76e-05
2206	4.16e-05
2218	6.76e-05
2230	3.77e-05
2242	4.42e-05
2254	3.64e-05
2266	5.85e-05
2278	5.46e-05
2290	5.98e-05
2302	7.41e-05
2314	4.81e-05
2326	0.0001053
2338	8.45e-05
2350	0.0001183
2362	0.0001092
2374	0.0001248
2386	0.0001001
2398	0.0001131
2410	0.0001235
2422	8.84e-05
2434	9.88e-05
2446	0.0001066
2458	8.19e-05
2470	8.84e-05
2482	9.49e-05
2494	9.23e-05
2506	0.0001196
2518	0.0001001
2530	0.0001157
2542	9.62e-05
2554	7.28e-05
2566	7.54e-05
2578	5.33e-05
2590	7.15e-05
2602	4.03e-05
2614	5.85e-05
2626	6.76e-05
2638	6.63e-05
2650	8.32e-05
2662	6.24e-05
2674	6.76e-05
2686	7.93e-05
2698	4.55e-05
2710	8.71e-05
2722	0.000104
2734	0.0001482
2746	0.0001287
2758	4.55e-05
2770	5.72e-05
2782	8.06e-05
2794	7.02e-05
2806	6.11e-05
2818	5.07e-05
2830	6.89e-05
2842	8.84e-05
2854	2.86e-05
2866	8.19e-05
2878	0.0001196
2890	0.0001001
2902	6.5e-05
2914	0.0001105
2926	7.28e-05
2938	0.0001391
2950	0.0001807
2962	0.0002327
2974	0.0002951
2986	0.000286
2998	0.0004069
3010	0.0007553
3022	0.0018577
3034	0.0026572
3046	0.0027222
3058	0.0027781
3070	0.0030277
3082	0.0026884
3094	0.0015301
3106	0.0007371
3118	0.0003094
3130	0.0001508
3142	4.68e-05
3154	0.0001092
3166	4.68e-05
3178	0.0001274
3190	0.0001326
3202	0.0001092
3214	0.0001092
3226	0.0001794
3238	0.0002093
3250	0.0001599
3262	0.0001495
3274	6.89e-05
3286	7.28e-05
3298	0.0001066
3310	0.0001209
3322	9.88e-05
3334	0.0001274
3346	0.0001404
3358	0.0001079
3370	0.000182
3382	0.0002145
3394	0.0004706
3406	0.0008749
3418	0.0008047
3430	0.0003172
3442	0.0002132
3454	0.0002639
3466	0.0003263
3478	0.000728
3490	0.0010998
3502	0.0007397
3514	0.0003536
3526	0.0002184
3538	0.0001768
3550	0.0001534
3562	0.0001924
3574	0.0001781
3586	0.0001976
3598	0.0002652
3610	0.0002483
3622	0.0005369
3634	0.0017043
3646	0.0050791
3658	0.0039897
3670	0.0006019
3682	0.0002314
3694	0.0002067
3706	0.0002054
3718	0.0001118
3730	0.0001521
3742	0.0001664
3754	0.0001313
3766	0.000195
3778	0.0001651
3790	0.0001794
3802	0.00013
3814	0.0001807
3826	0.0002379
3838	0.0002184
