Infrared Spectrum: 1-AMINO-8-NAPHTHOL-4-SULFONIC ACID
Formula: C10 H9 N O4 S
CAS: 83-64-7
State: SOLID (1.0% IN KBr PELLET)
Class: COBLENTZ
Instrument: Not specified, most likely a prism, grating, or hybrid spectrometer.
Sampling: TRANSMISSION
Path length: 0.0355 CM THICK
Resolution: 4
Origin: ANDERSON PHYSICAL LABORATORY
1/CM	TRANSMITTANCE
667.702	0.582
676.087	0.577
684.472	0.54
692.857	0.3511
701.242	0.157
709.627	0.3089
718.013	0.571
726.398	0.664
734.783	0.639
743.168	0.374
751.553	0.392
759.938	0.615
768.323	0.7329
776.708	0.711
785.093	0.7137
793.478	0.76
801.864	0.552
810.249	0.585
818.634	0.726
827.019	0.63
835.404	0.732
843.789	0.769
852.174	0.791
860.559	0.793
868.944	0.787
877.329	0.788
885.714	0.815
894.1	0.835
902.485	0.847
910.87	0.85
919.255	0.85
927.64	0.839
936.025	0.827
944.41	0.824
952.795	0.821
961.18	0.802
969.565	0.785
977.951	0.764
986.336	0.744
994.721	0.693
1003.11	0.598
1011.49	0.591
1019.88	0.459
1028.26	0.0913
1036.65	0.137
1045.03	0.4189
1053.42	0.366
1061.8	0.157
1070.19	0.203
1078.57	0.255
1086.96	0.206
1095.34	0.157
1103.73	0.187
1112.11	0.244
1120.5	0.167
1128.88	0.161
1137.27	0.145
1145.65	0.149
1154.04	0.068
1162.42	0.022
1170.81	0.017
1179.19	0.035
1187.58	0.043
1195.96	0.046
1204.35	0.1359
1212.73	0.161
1221.12	0.085
1229.5	0.044
1237.89	0.05
1246.27	0.053
1254.66	0.166
1263.04	0.2379
1271.43	0.336
1279.81	0.2301
1288.2	0.154
1296.58	0.1989
1304.97	0.4219
1313.35	0.573
1321.74	0.604
1330.12	0.502
1338.51	0.404
1346.89	0.4259
1355.28	0.5949
1363.66	0.6
1372.05	0.588
1380.44	0.648
1388.82	0.639
1397.21	0.4981
1405.59	0.374
1413.98	0.589
1422.36	0.658
1430.75	0.633
1439.13	0.61
1447.52	0.588
1455.9	0.615
1464.29	0.48
1472.67	0.5679
1481.06	0.694
1489.44	0.669
1497.83	0.61
1506.21	0.538
1514.6	0.52
1522.98	0.4521
1531.37	0.408
1539.75	0.341
1548.14	0.279
1556.52	0.214
1564.91	0.136
1573.29	0.164
1581.68	0.187
1590.06	0.218
1598.45	0.2989
1606.83	0.2601
1615.22	0.2658
1623.6	0.47
1631.99	0.516
1640.37	0.567
1648.76	0.645
1657.14	0.688
1665.53	0.724
1673.91	0.775
1682.3	0.799
1690.68	0.827
1699.07	0.842
1707.45	0.847
1715.84	0.853
1724.22	0.857
1732.61	0.869
1740.99	0.871
1749.38	0.878
1757.76	0.887
1766.15	0.898
1774.53	0.907
1782.92	0.913
1791.3	0.916
1799.69	0.914
1808.08	0.911
1816.46	0.902
1824.85	0.895
1833.23	0.887
1841.62	0.884
1850	0.884
1858.39	0.875
1866.77	0.86
1875.16	0.848
1883.54	0.859
1891.93	0.866
1900.31	0.866
1908.7	0.866
1917.08	0.863
1925.47	0.856
1933.85	0.853
1942.24	0.856
1950.62	0.866
1959.01	0.871
1967.39	0.874
1975.78	0.877
1984.16	0.878
1992.55	0.881
2000.93	0.8905
2009.32	0.892
2017.7	0.892
2026.09	0.89
2034.47	0.89
2042.86	0.89
2051.24	0.889
2059.63	0.889
2068.01	0.889
2076.4	0.889
2084.78	0.8875
2093.17	0.886
2101.55	0.8855
2109.94	0.8835
2118.32	0.881
2126.71	0.878
2135.09	0.8735
2143.48	0.87
2151.86	0.8682
2160.25	0.8659
2168.63	0.8585
2177.02	0.856
2185.4	0.856
2193.79	0.854
2202.17	0.8524
2210.56	0.85
2218.94	0.8472
2227.33	0.8439
2235.71	0.8382
2244.1	0.8325
2252.49	0.8274
2260.87	0.824
2269.26	0.823
2277.64	0.8205
2286.03	0.8172
2294.41	0.8078
2302.8	0.7997
2311.18	0.7924
2319.57	0.7856
2327.95	0.7789
2336.34	0.7744
2344.72	0.772
2353.11	0.772
2361.49	0.77
2369.88	0.7651
2378.26	0.7574
2386.65	0.7542
2395.03	0.7447
2403.42	0.7332
2411.8	0.7217
2420.19	0.7117
2428.57	0.6998
2436.96	0.6898
2445.34	0.672
2453.73	0.6674
2462.11	0.6624
2470.5	0.6452
2478.88	0.6197
2487.27	0.6037
2495.65	0.5765
2504.04	0.569
2512.42	0.5541
2520.81	0.5195
2529.19	0.49
2537.58	0.465
2545.96	0.4448
2554.35	0.4274
2562.73	0.4134
2571.12	0.4006
2579.5	0.3895
2587.89	0.3788
2596.27	0.3651
2604.66	0.3479
2613.04	0.3392
2621.43	0.336
2629.81	0.3385
2638.2	0.3457
2646.58	0.348
2654.97	0.3555
2663.35	0.3683
2671.74	0.3757
2680.13	0.3798
2688.51	0.383
2696.9	0.384
2705.28	0.384
2713.67	0.3834
2722.05	0.3787
2730.44	0.3717
2738.82	0.3639
2747.21	0.3533
2755.59	0.3426
2763.98	0.3313
2772.36	0.3182
2780.75	0.3065
2789.13	0.2946
2797.52	0.2811
2805.9	0.2636
2814.29	0.2467
2822.67	0.2298
2831.06	0.2132
2839.44	0.1977
2847.83	0.1842
2856.21	0.1735
2864.6	0.1636
2872.98	0.1588
2881.37	0.1538
2889.75	0.1342
2898.14	0.1072
2906.52	0.0832
2914.91	0.0734
2923.29	0.0683
2931.68	0.0618
2940.06	0.0586
2948.45	0.058
2956.83	0.058
2965.22	0.059
2973.6	0.0614
2981.99	0.066
2990.37	0.0763
2998.76	0.0919
3007.14	0.1047
3015.53	0.1163
3023.91	0.1246
3032.3	0.1313
3040.68	0.136
3049.07	0.1397
3057.45	0.1448
3065.84	0.1482
3074.22	0.1514
3082.61	0.1534
3090.99	0.154
3099.38	0.1518
3107.76	0.151
3116.15	0.151
3124.54	0.1519
3132.92	0.154
3141.31	0.1544
3149.69	0.1577
3158.08	0.1609
3166.46	0.1696
3174.85	0.1763
3183.23	0.181
3191.62	0.1868
3200	0.1916
3208.39	0.1973
3216.77	0.2021
3225.16	0.2088
3233.54	0.2178
3241.93	0.2281
3250.31	0.2452
3258.7	0.2597
3267.08	0.2728
3275.47	0.2828
3283.85	0.2928
3292.24	0.3028
3300.62	0.3096
3309.01	0.3184
3317.39	0.3237
3325.78	0.326
3334.16	0.327
3342.55	0.327
3350.93	0.3263
3359.32	0.3241
3367.7	0.323
3376.09	0.323
3384.47	0.323
3392.86	0.3259
3401.24	0.3292
3409.63	0.33
3418.01	0.3315
3426.4	0.3389
3434.78	0.3457
3443.17	0.3544
3451.55	0.3612
3459.94	0.368
3468.32	0.3794
3476.71	0.3929
3485.09	0.4078
3493.48	0.423
3501.86	0.4362
3510.25	0.4465
3518.63	0.4515
3527.02	0.465
3535.4	0.4823
3543.79	0.503
3552.18	0.5265
3560.56	0.5519
3568.95	0.5801
3577.33	0.6091
3585.72	0.6385
3594.1	0.667
3602.49	0.6965
3610.87	0.7242
3619.26	0.7494
3627.64	0.7731
3636.03	0.7948
3644.41	0.8121
3652.8	0.8256
3661.18	0.836
3669.57	0.8395
3677.95	0.8431
3686.34	0.8466
3694.72	0.848
3703.11	0.85
3711.49	0.8505
3719.88	0.851
3728.26	0.851
3736.65	0.851
3745.03	0.85
3753.42	0.8472
3761.8	0.839
3770.19	0.8357
3778.57	0.833
3786.96	0.832
3795.34	0.83
3803.73	0.83
3812.11	0.83
3820.5	0.83
3828.88	0.83
3837.27	0.83
3845.65	0.8295
3854.04	0.829
3862.42	0.8289
3870.81	0.827
3879.19	0.826
3887.58	0.824
3895.96	0.8229
3904.35	0.82
3912.73	0.8174
3921.12	0.8142
3929.5	0.814
3937.89	0.8134
3946.27	0.812
3954.66	0.812
3963.04	0.812
3971.43	0.812
3979.81	0.812
3988.2	0.8112
