Infrared Spectrum: Theobromine
Formula: C 7 H 8 N 4 O 2
CAS: 83-67-0
State: gas
Instrument: HP-GC/MS/IRD
Origin: NIST Mass Spectrometry Data Center
1/CM	ABSORBANCE
550	0.0003468
562	0.000102
574	5.78e-05
586	0.0001394
598	0.0005134
610	0.0007276
622	0.0014212
634	0.0014348
646	0.00068
658	0.0003128
670	0.000306
682	0.0002788
694	0.0002924
706	0.0004862
718	0.0007548
730	0.0004862
742	0.0005338
754	0.0011866
766	0.0013464
778	0.000714
790	0.0002516
802	0.000153
814	0.0001938
826	0.0004284
838	0.000442
850	0.0002516
862	0.0001156
874	0.0001258
886	9.86e-05
898	0.0001462
910	0.0001428
922	0.000187
934	0.0002278
946	0.000119
958	0.0001394
970	0.000153
982	0.000153
994	0.0001496
1006	0.0001258
1018	0.000204
1030	0.000238
1042	0.0001666
1054	0.0002346
1066	0.0002992
1078	0.00034
1090	0.0005406
1102	0.0010302
1114	0.00204
1126	0.0013396
1138	0.0003944
1150	0.0002584
1162	0.0003332
1174	0.0004114
1186	0.0005576
1198	0.0008942
1210	0.0012138
1222	0.0020026
1234	0.0022576
1246	0.0007344
1258	0.0003706
1270	0.0005644
1282	0.0008432
1294	0.0008228
1306	0.0010336
1318	0.0010064
1330	0.0006562
1342	0.0008636
1354	0.0013362
1366	0.0014348
1378	0.001445
1390	0.001632
1402	0.0014212
1414	0.001802
1426	0.0013328
1438	0.0012036
1450	0.002346
1462	0.0035122
1474	0.0028492
1486	0.0021216
1498	0.0011764
1510	0.0009588
1522	0.0013804
1534	0.0023018
1546	0.0029308
1558	0.002091
1570	0.0012682
1582	0.0021012
1594	0.0038352
1606	0.0024174
1618	0.0007786
1630	0.000544
1642	0.0005576
1654	0.0008772
1666	0.001037
1678	0.001156
1690	0.0020162
1702	0.0045866
1714	0.0138516
1726	0.0315146
1738	0.0257992
1750	0.0067796
1762	0.0027846
1774	0.0013736
1786	0.0010166
1798	0.000748
1810	0.000476
1822	0.0003468
1834	0.0002686
1846	0.000187
1858	0.0001734
1870	0.0001394
1882	0.0001428
1894	0.0001292
1906	0.0001156
1918	0.0001088
1930	9.18e-05
1942	0.000119
1954	0.0001088
1966	8.16e-05
1978	9.52e-05
1990	0.0001054
2002	9.86e-05
2014	8.84e-05
2026	7.48e-05
2038	7.14e-05
2050	7.48e-05
2062	4.76e-05
2074	7.82e-05
2086	8.16e-05
2098	5.78e-05
2110	5.78e-05
2122	6.12e-05
2134	8.16e-05
2146	8.84e-05
2158	7.82e-05
2170	5.44e-05
2182	6.8e-05
2194	8.16e-05
2206	8.5e-05
2218	8.84e-05
2230	7.48e-05
2242	8.5e-05
2254	4.76e-05
2266	4.08e-05
2278	4.08e-05
2290	4.08e-05
2302	4.42e-05
2314	6.12e-05
2326	8.5e-05
2338	6.8e-05
2350	3.4e-06
2362	3.4e-06
2374	1.02e-05
2386	3.06e-05
2398	3.74e-05
2410	5.78e-05
2422	6.12e-05
2434	5.1e-05
2446	6.12e-05
2458	7.14e-05
2470	7.48e-05
2482	8.84e-05
2494	9.86e-05
2506	4.42e-05
2518	5.78e-05
2530	5.44e-05
2542	4.76e-05
2554	2.72e-05
2566	5.44e-05
2578	6.12e-05
2590	5.78e-05
2602	2.04e-05
2614	5.78e-05
2626	6.8e-05
2638	4.42e-05
2650	3.74e-05
2662	5.1e-05
2674	5.78e-05
2686	3.06e-05
2698	4.76e-05
2710	6.8e-06
2722	2.04e-05
2734	2.38e-05
2746	5.44e-05
2758	5.1e-05
2770	6.8e-05
2782	9.18e-05
2794	7.82e-05
2806	0.0001326
2818	0.000119
2830	0.0001326
2842	0.0001156
2854	0.0002006
2866	0.0001836
2878	0.0001904
2890	0.0002788
2902	0.0003434
2914	0.0003502
2926	0.000425
2938	0.0006018
2950	0.0008704
2962	0.0010268
2974	0.0007446
2986	0.0004046
2998	0.000272
3010	0.0002176
3022	0.0001836
3034	0.0001632
3046	0.0001224
3058	0.0001258
3070	0.0001326
3082	0.0001462
3094	0.0001258
3106	0.000119
3118	0.0001734
3130	0.0001088
3142	7.48e-05
3154	8.16e-05
3166	8.84e-05
3178	4.76e-05
3190	6.12e-05
3202	8.16e-05
3214	5.78e-05
3226	6.12e-05
3238	6.46e-05
3250	3.06e-05
3262	6.46e-05
3274	9.86e-05
3286	5.44e-05
3298	8.5e-05
3310	0.0001292
3322	0.000136
3334	3.4e-05
3346	8.5e-05
3358	5.44e-05
3370	0.0001122
3382	7.82e-05
3394	0.0001122
3406	0.0001904
3418	0.0004828
3430	0.0016898
3442	0.0020774
3454	0.000901
3466	0.000391
3478	0.0001666
3490	0.0001564
3502	8.16e-05
3514	0.0001156
3526	4.08e-05
3538	7.82e-05
3550	6.8e-05
3562	7.82e-05
3574	0.0001054
3586	2.04e-05
3598	7.48e-05
3610	8.16e-05
3622	9.86e-05
3634	6.46e-05
3646	5.44e-05
3658	0.000136
3670	0.000102
3682	8.84e-05
3694	9.18e-05
3706	0.000119
3718	0.000102
3730	7.82e-05
3742	1.7e-05
3754	0.000102
3766	0.0001598
3778	0.0001496
3790	0.000136
3802	0.0001224
3814	7.48e-05
3826	0.0001258
3838	0.000102
