Infrared Spectrum: 2-Hydroxy-1,4-naphthoquinone
Formula: C 10 H 6 O 3
CAS: 83-72-7
State: gas
Instrument: HP-GC/MS/IRD
Origin: NIST Mass Spectrometry Data Center
1/CM	ABSORBANCE
550	0.0004732
562	0.0003614
574	0.0006604
586	0.0019448
598	0.0036192
610	0.0021606
622	0.0004628
634	0.0001404
646	0.0007982
658	0.0013624
670	0.001404
682	0.0004108
694	0.0001742
706	0.0008372
718	0.0033644
730	0.003705
742	0.0009542
754	0.0002132
766	0.0010374
778	0.0026494
790	0.0014872
802	0.0009958
814	0.000286
826	0.0001118
838	1.56e-05
850	0.0002106
862	0.0009854
874	0.0022204
886	0.0008866
898	0.0002964
910	0.0002054
922	0.0002548
934	0.0002808
946	0.0003068
958	0.0006344
970	0.0017056
982	0.005421
994	0.0033124
1006	0.0006032
1018	0.0004238
1030	0.0003952
1042	0.0003328
1054	0.0002314
1066	0.0003978
1078	0.000741
1090	0.0007046
1102	0.0008138
1114	0.0008346
1126	0.0007618
1138	0.0009152
1150	0.0010972
1162	0.0011076
1174	0.0006344
1186	0.0011518
1198	0.0053352
1210	0.014781
1222	0.0068926
1234	0.0019656
1246	0.004719
1258	0.0051844
1270	0.002938
1282	0.0061464
1294	0.0114036
1306	0.0073814
1318	0.0101062
1330	0.013065
1342	0.0049738
1354	0.0021606
1366	0.0015704
1378	0.0022386
1390	0.007241
1402	0.0151606
1414	0.0094016
1426	0.0026676
1438	0.0011882
1450	0.0010192
1462	0.0013884
1474	0.0008138
1486	0.0003874
1498	0.0002444
1510	0.0002444
1522	0.0004524
1534	0.0007176
1546	0.0006136
1558	0.0005668
1570	0.0008398
1582	0.0015288
1594	0.0031616
1606	0.0028912
1618	0.001625
1630	0.001833
1642	0.0041392
1654	0.0098878
1666	0.0188188
1678	0.0257452
1690	0.009789
1702	0.0027794
1714	0.0014846
1726	0.001222
1738	0.0009646
1750	0.0006292
1762	0.0003224
1774	0.0002834
1786	0.0002028
1798	0.000156
1810	0.0001066
1822	7.54e-05
1834	8.06e-05
1846	0.0001456
1858	0.0001976
1870	0.0001846
1882	0.000117
1894	8.32e-05
1906	8.06e-05
1918	0.0001066
1930	0.0001092
1942	0.0001248
1954	0.0001716
1966	0.0001508
1978	0.0001456
1990	8.84e-05
2002	6.76e-05
2014	5.98e-05
2026	4.42e-05
2038	5.2e-05
2050	4.68e-05
2062	3.12e-05
2074	2.6e-05
2086	2.6e-05
2098	1.56e-05
2110	2.6e-05
2122	0
2134	3.12e-05
2146	6.5e-05
2158	1.04e-05
2170	4.94e-05
2182	5.46e-05
2194	7.02e-05
2206	6.5e-05
2218	5.2e-05
2230	3.38e-05
2242	4.94e-05
2254	3.38e-05
2266	7.28e-05
2278	5.2e-05
2290	3.64e-05
2302	4.68e-05
2314	8.84e-05
2326	0.0001118
2338	6.24e-05
2350	7.54e-05
2362	8.06e-05
2374	8.58e-05
2386	8.06e-05
2398	9.36e-05
2410	9.36e-05
2422	8.32e-05
2434	7.02e-05
2446	9.62e-05
2458	5.46e-05
2470	5.98e-05
2482	6.5e-05
2494	7.8e-05
2506	6.76e-05
2518	5.98e-05
2530	9.1e-05
2542	9.88e-05
2554	3.38e-05
2566	4.68e-05
2578	3.38e-05
2590	8.32e-05
2602	0.0001326
2614	0.0001482
2626	0.00013
2638	0.0001092
2650	0.0001066
2662	0.0001014
2674	7.8e-05
2686	6.76e-05
2698	1.04e-05
2710	3.38e-05
2722	2.86e-05
2734	5.72e-05
2746	1.82e-05
2758	2.08e-05
2770	3.64e-05
2782	5.46e-05
2794	7.8e-05
2806	7.02e-05
2818	6.5e-05
2830	5.46e-05
2842	8.32e-05
2854	8.84e-05
2866	0.0001222
2878	0.0001768
2890	0.0001638
2902	0.0001066
2914	0.000117
2926	8.84e-05
2938	8.06e-05
2950	3.64e-05
2962	3.12e-05
2974	5.46e-05
2986	2.34e-05
2998	0.0001066
3010	0.0001586
3022	0.0001638
3034	0.0002704
3046	0.000364
3058	0.0003978
3070	0.00091
3082	0.001534
3094	0.0006552
3106	0.0002392
3118	0.0002392
3130	0.000182
3142	0.0002366
3154	0.0002002
3166	0.0001638
3178	9.36e-05
3190	0.0001014
3202	8.58e-05
3214	4.16e-05
3226	8.32e-05
3238	6.5e-05
3250	9.88e-05
3262	0.0001248
3274	7.8e-05
3286	0.000104
3298	0.0001898
3310	0.0002548
3322	0.0004836
3334	0.0005512
3346	0.0003718
3358	0.0002418
3370	0.0001664
3382	0.0002106
3394	0.0002886
3406	0.0004602
3418	0.0011076
3430	0.0036478
3442	0.005525
3454	0.003211
3466	0.001859
3478	0.0012558
3490	0.000507
3502	0.0002652
3514	0.0001742
3526	7.8e-05
3538	9.62e-05
3550	1.56e-05
3562	4.94e-05
3574	3.38e-05
3586	3.12e-05
3598	9.1e-05
3610	7.8e-06
3622	7.02e-05
3634	3.12e-05
3646	3.12e-05
3658	5.72e-05
3670	3.12e-05
3682	4.42e-05
3694	8.84e-05
3706	0.0001248
3718	0.0001248
3730	0.00013
3742	0.0001794
3754	0.000286
3766	0.0002028
3778	8.58e-05
3790	0.0001924
3802	9.36e-05
3814	5.2e-05
3826	3.9e-05
3838	5.72e-05
