Infrared Spectrum: 1,5-Dibenzoylnaphthalene
Formula: C 24 H 16 O 2
CAS: 83-80-7
State: gas
Origin: EPA-IR VAPOR PHASE LIBRARY
1/CM	ABSORBANCE
501.5	0.000497724
513.074	0.00059224
524.648	0.0004041
536.222	0.0006321
547.796	0.0004223
559.37	0.000499217
570.944	0.000665
582.518	0.0007805
594.092	0.0006374
605.666	0.0007681
617.24	0.0013082
628.814	0.005145
640.388	0.003705
651.962	0.003665
663.536	0.001775
675.11	0.001965
686.684	0.003465
698.258	0.004405
709.832	0.005925
721.406	0.004805
732.98	0.002335
744.554	0.002305
756.128	0.001605
767.702	0.0013234
779.276	0.003595
790.85	0.007865
802.423	0.002315
813.997	0.0009731
825.571	0.0009182
837.145	0.0009012
848.719	0.0007235
860.293	0.0006345
871.867	0.0006404
883.441	0.0007935
895.015	0.0013204
906.589	0.001545
918.163	0.0014604
929.737	0.0014725
941.311	0.0014372
952.885	0.002125
964.459	0.006595
976.033	0.010185
987.607	0.002855
999.181	0.002385
1010.76	0.0011121
1022.33	0.0012833
1033.9	0.0010453
1045.48	0.0008351
1057.05	0.0014683
1068.63	0.0013347
1080.2	0.0009283
1091.77	0.0007533
1103.35	0.0009094
1114.92	0.0010515
1126.49	0.0008314
1138.07	0.0010866
1149.64	0.001865
1161.22	0.004635
1172.79	0.003065
1184.36	0.003835
1195.94	0.003605
1207.51	0.005145
1219.09	0.004075
1230.66	0.002335
1242.23	0.003135
1253.81	0.004955
1265.38	0.012165
1276.96	0.018395
1288.53	0.006135
1300.1	0.003475
1311.68	0.004545
1323.25	0.002315
1334.83	0.001475
1346.4	0.0008606
1357.97	0.000652
1369.55	0.0006761
1381.12	0.0007425
1392.7	0.0007762
1404.27	0.0012282
1415.84	0.0009559
1427.42	0.0008792
1438.99	0.0014467
1450.57	0.003395
1462.14	0.0010511
1473.71	0.0008938
1485.29	0.0010573
1496.86	0.001665
1508.44	0.002705
1520.01	0.001555
1531.58	0.0010841
1543.16	0.0009383
1554.73	0.0009412
1566.31	0.0011492
1577.88	0.001995
1589.45	0.002335
1601.03	0.002305
1612.6	0.0012902
1624.18	0.0011923
1635.75	0.0014282
1647.32	0.001965
1658.9	0.003145
1670.47	0.007605
1682.05	0.018645
1693.62	0.007945
1705.19	0.003185
1716.77	0.001685
1728.34	0.0010793
1739.92	0.0007873
1751.49	0.0007027
1763.06	0.0006512
1774.64	0.0006057
1786.21	0.00052267
1797.79	0.0006057
1809.36	0.000818
1820.93	0.0006311
1832.51	0.00049026
1844.08	0.0004194
1855.66	0.0004192
1867.23	0.0004639
1878.8	0.00057293
1890.38	0.0006163
1901.95	0.0006483
1913.53	0.0006058
1925.1	0.000529
1936.67	0.0006164
1948.25	0.0006356
1959.82	0.0006387
1971.4	0.00056065
1982.97	0.000375
1994.54	0.000351
2006.12	0.000339
2017.69	0.000346
2029.27	0.000311
2040.84	0.000319
2052.41	0.000305
2063.99	0.000315
2075.56	0.000299
2087.14	0.000311
2098.71	0.000308
2110.28	0.000282
2121.86	0.000283
2133.43	0.000295
2145.01	0.000296
2156.58	0.000304
2168.15	0.000288
2179.73	0.000293
2191.3	0.000291
2202.88	0.000293
2214.45	0.000264
2226.02	0.000311
2237.6	0.000297
2249.17	0.00029
2260.74	0.000296
2272.32	0.000299
2283.89	0.00028
2295.47	0.000276
2307.04	0.000291
2318.61	0.000355
2330.19	0.000325
2341.76	0.000336
2353.34	0.000313
2364.91	0.000281
2376.48	0.000322
2388.06	0.000336
2399.63	0.000314
2411.21	0.000302
2422.78	0.000277
2434.35	0.000279
2445.93	0.000263
2457.5	0.000256
2469.08	0.000281
2480.65	0.000267
2492.22	0.000249
2503.8	0.000255
2515.37	0.000258
2526.95	0.000253
2538.52	0.000243
2550.09	0.000259
2561.67	0.000235
2573.24	0.000268
2584.82	0.000292
2596.39	0.000275
2607.96	0.000259
2619.54	0.000283
2631.11	0.000269
2642.69	0.000249
2654.26	0.000219
2665.83	0.000222
2677.41	0.000219
2688.98	0.000251
2700.56	0.000238
2712.13	0.000229
2723.7	0.000236
2735.28	0.000205
2746.85	0.000259
2758.43	0.000269
2770	0.000263
2781.57	0.000243
2793.15	0.000237
2804.72	0.000254
2816.3	0.00024
2827.87	0.000241
2839.44	0.000264
2851.02	0.000269
2862.59	0.000269
2874.17	0.000279
2885.74	0.00026
2897.31	0.000259
2908.89	0.000242
2920.46	0.000223
2932.04	0.000256
2943.61	0.000293
2955.18	0.000281
2966.76	0.000279
2978.33	0.000283
2989.91	0.000374
3001.48	0.0004285
3013.05	0.00058968
3024.63	0.0010971
3036.2	0.001805
3047.78	0.002025
3059.35	0.002615
3070.92	0.004875
3082.5	0.003225
3094.07	0.002425
3105.65	0.0011019
3117.22	0.00052465
3128.79	0.000358
3140.37	0.000275
3151.94	0.000315
3163.52	0.000257
3175.09	0.000197
3186.66	0.000211
3198.24	0.00017
3209.81	0.000144
3221.39	0.000114
3232.96	0.00016
3244.53	0.000158
3256.11	0.000122
3267.68	0.000154
3279.26	0.000142
3290.83	0.000156
3302.4	0.000127
3313.98	0.000199
3325.55	0.000194
3337.13	0.000287
3348.7	0.00034
3360.27	0.000243
3371.85	0.000262
3383.42	0.000167
3395	9.3e-05
3406.57	0.000118
3418.14	5.8e-05
3429.72	6.9e-05
3441.29	7.8e-05
3452.86	0.000111
3464.44	6.2e-05
3476.01	0.0001
3487.59	7.9e-05
3499.16	5.5e-05
3510.73	3.8e-05
3522.31	7.1e-05
3533.88	3.7e-05
3545.46	8e-05
3557.03	4.7e-05
3568.6	9.1e-05
3580.18	6.6e-05
3591.75	6.5e-05
3603.33	4.4e-05
3614.9	0.000125
3626.47	5.6e-05
3638.05	6.4e-05
3649.62	3.2e-05
3661.2	5.3e-05
3672.77	5.6e-05
3684.34	3.6e-05
3695.92	5.2e-05
3707.49	9.2e-05
3719.07	8.8e-05
3730.64	9.2e-05
3742.21	8.1e-05
3753.79	6.9e-05
3765.36	9e-05
3776.94	5.6e-05
3788.51	0.000117
3800.08	6.8e-05
3811.66	4.1e-05
3823.23	0.00011
3834.81	3.8e-05
3846.38	6.5e-05
3857.95	7.1e-05
3869.53	6e-06
3881.1	9.1e-05
3892.68	3.5e-05
3904.25	7.6e-05
3915.82	7.1e-05
3927.4	9.8e-05
3938.97	5.5e-05
3950.55	3e-06
3962.12	3.9e-05
3973.69	7.5e-05
3985.27	5.9e-05
3996.84	2.3e-05
