Infrared Spectrum: Indole-3-propionic acid
Formula: C11 H11 N O2
CAS: 830-96-6
State: SOLID (SPLIT MULL)
Class: COBLENTZ II
Instrument: DOW KBr FOREPRISM-GRATING
Instrument parameters: BLAZED AT 3.5, 12.0, 20.0 MICRON AND CHANGED AT 5.0, 7.5, 14.9 MICRON
Sampling: TRANSMISSION
Resolution: 2
Origin: DOW CHEMICAL COMPANY
1/CM	TRANSMITTANCE
3794	0.6844
3785	0.6854
3776	0.6867
3767	0.6878
3758	0.6892
3749	0.6906
3740	0.6921
3731	0.6939
3722	0.6958
3713	0.6978
3704	0.701
3695	0.7025
3686	0.7025
3677	0.7032
3668	0.7048
3659	0.7062
3650	0.7078
3641	0.7093
3632	0.7108
3623	0.7122
3614	0.714
3605	0.7157
3596	0.7174
3587	0.719
3578	0.7205
3569	0.7218
3560	0.7235
3551	0.7257
3542	0.7283
3533	0.7321
3524	0.7343
3515	0.7358
3506	0.7387
3497	0.7415
3488	0.7472
3479	0.755
3470	0.7596
3461	0.6188
3452	0.0802
3443	0.3475
3434	0.521
3425	0.5927
3416	0.6349
3407	0.6588
3398	0.6728
3389	0.6839
3380	0.6886
3371	0.6928
3362	0.6964
3353	0.6997
3344	0.7025
3335	0.7033
3326	0.7038
3317	0.7043
3308	0.7048
3299	0.7051
3290	0.7057
3281	0.7061
3272	0.7068
3263	0.7069
3254	0.7061
3245	0.704
3236	0.7011
3227	0.698
3218	0.6948
3209	0.6915
3200	0.6875
3191	0.6833
3182	0.6784
3173	0.6726
3164	0.6682
3155	0.6637
3146	0.6515
3137	0.6437
3128	0.6383
3119	0.6365
3110	0.632
3101	0.6215
3092	0.609
3083	0.5934
3074	0.5945
3065	0.5649
3056	0.5656
3047	0.568
3038	0.5609
3029	0.5529
3020	0.5445
3011	0.5158
3002	0.5186
2993	0.5326
2984	0.5435
2975	0.5518
2966	0.5532
2957	0.5482
2948	0.5478
2939	0.5401
2930	0.5199
2921	0.5036
2912	0.4957
2903	0.4988
2894	0.541
2885	0.551
2876	0.5468
2867	0.5324
2858	0.5274
2849	0.5566
2840	0.574
2831	0.5866
2822	0.596
2813	0.6024
2804	0.6065
2795	0.6084
2786	0.6077
2777	0.6069
2768	0.607
2759	0.612
2750	0.6147
2741	0.6162
2732	0.6172
2723	0.6182
2714	0.6175
2705	0.6175
2696	0.6201
2687	0.6198
2678	0.6164
2669	0.612
2660	0.6091
2651	0.6064
2642	0.6072
2633	0.6101
2624	0.6064
2615	0.6049
2606	0.6055
2597	0.6164
2588	0.6257
2579	0.6341
2570	0.6389
2561	0.6385
2552	0.6399
2543	0.6412
2534	0.6428
2525	0.6498
2516	0.6567
2507	0.6633
2498	0.67
2489	0.6762
2480	0.6815
2471	0.6869
2462	0.6928
2453	0.6998
2444	0.7067
2435	0.7134
2426	0.7199
2417	0.7248
2408	0.7284
2399	0.7303
2390	0.7315
2381	0.733
2372	0.7321
2363	0.7325
2354	0.7368
2345	0.7404
2336	0.7415
2327	0.7428
2318	0.7451
2309	0.7478
2300	0.7506
2291	0.7532
2282	0.7558
2273	0.7584
2264	0.7606
2255	0.7625
2246	0.7647
2237	0.7668
2228	0.7691
2219	0.7715
2210	0.774
2201	0.7761
2192	0.7781
2183	0.7797
2174	0.7812
2165	0.7831
2156	0.7851
2147	0.7871
2138	0.7891
2129	0.7906
2120	0.7915
2111	0.7931
2102	0.7951
2093	0.7976
2084	0.7999
2075	0.8018
2066	0.8032
2057	0.8055
2048	0.8078
2039	0.8117
2030	0.8571
2021	0.8198
2012	0.8201
2003	0.8487
1994	0.8186
1985	0.8668
1976	0.8685
1967	0.8696
1958	0.9995
1949	0.892
1940	0.8764
1931	0.8724
1922	0.8578
1913	0.8605
1904	0.8665
1895	0.8671
1886	0.8588
1877	0.8556
1868	0.8635
1859	0.8656
1850	0.8636
1841	0.8598
1832	0.8701
1823	0.8768
1814	0.8782
1805	0.8732
1796	0.8637
1787	0.8681
1778	0.8736
1769	0.8706
1760	0.8675
1751	0.8754
1742	0.8805
1733	0.8781
1724	0.8556
1715	0.7342
1706	0.4353
1697	0.1285
1688	0.2898
1679	0.6112
1670	0.7249
1661	0.7688
1652	0.8126
1643	0.8436
1634	0.8553
1625	0.8375
1616	0.8
1607	0.8603
1598	0.8707
1589	0.8544
1580	0.8625
1571	0.8824
1562	0.8696
1553	0.8702
1544	0.8857
1535	0.8892
1526	0.8925
1517	0.8992
1508	0.8971
1499	0.899
1490	0.8325
1481	0.8916
1472	0.8971
1463	0.8833
1454	0.7001
1445	0.7168
1436	0.7747
1427	0.516
1418	0.5614
1409	0.4359
1400	0.7561
1391	0.8282
1382	0.8443
1373	0.8318
1364	0.8171
1355	0.734
1346	0.6808
1337	0.481
1328	0.751
1319	0.7724
1310	0.6337
1301	0.568
1292	0.347
1283	0.5731
1274	0.7483
1265	0.7874
1256	0.7995
1247	0.6789
1238	0.7919
1229	0.6795
1220	0.7103
1211	0.4012
1202	0.6352
1193	0.7615
1184	0.8044
1175	0.8161
1166	0.8288
1157	0.8338
1148	0.8043
1139	0.8448
1130	0.8456
1121	0.7787
1112	0.8575
1103	0.8454
1094	0.615
1085	0.6872
1076	0.8082
1067	0.8323
1058	0.8447
1049	0.8405
1040	0.8431
1031	0.8081
1022	0.8111
1013	0.8239
1004	0.7685
995	0.8104
986	0.7794
977	0.7406
968	0.6965
959	0.6733
950	0.6159
941	0.6338
932	0.7106
923	0.7406
914	0.8154
905	0.836
896	0.8302
887	0.8503
878	0.8646
869	0.8585
860	0.8657
851	0.8648
842	0.8397
833	0.8707
824	0.854
815	0.7324
806	0.7885
797	0.8633
788	0.8706
779	0.8101
770	0.8706
761	0.8718
752	0.6448
743	0.2716
734	0.7775
725	0.8307
716	0.8597
707	0.893
698	0.9011
689	0.9077
680	0.8899
671	0.7097
662	0.8527
653	0.8768
644	0.8925
635	0.8987
626	0.9014
617	0.896
608	0.7858
599	0.8917
590	0.8949
581	0.8196
572	0.7984
563	0.8792
554	0.8971
545	0.8945
536	0.8862
527	0.8473
518	0.8643
509	0.8831
500	0.8823
491	0.8701
482	0.799
473	0.6339
464	0.6484
455	0.6198
446	0.8562
437	0.8795
428	0.8386
419	0.7601
410	0.8176
401	0.8431
392	0.8498
383	0.8524
