Infrared Spectrum: 2,4,6-Trimethoxybenzaldehyde
Formula: C 10 H 12 O 4
CAS: 830-79-5
State: gas
Origin: EPA-IR VAPOR PHASE LIBRARY
1/CM	ABSORBANCE
549.8	0.00335
559.445	0.00341
569.09	0.0033
578.735	0.00334
588.38	0.0034
598.025	0.00293
607.67	0.00255
617.315	0.00255
626.96	0.00254
636.605	0.00264
646.251	0.00275
655.896	0.00274
665.541	0.00262
675.186	0.00241
684.831	0.00237
694.476	0.00238
704.121	0.0024
713.766	0.00239
723.411	0.00225
733.056	0.00251
742.701	0.00244
752.346	0.00219
761.991	0.00228
771.636	0.0025
781.281	0.00258
790.926	0.00297
800.571	0.00313
810.216	0.00331
819.861	0.00334
829.507	0.00323
839.152	0.00301
848.797	0.0027
858.442	0.00249
868.087	0.00223
877.732	0.00218
887.377	0.00233
897.022	0.00232
906.667	0.00242
916.312	0.00244
925.957	0.0025
935.602	0.00269
945.247	0.003
954.892	0.00282
964.537	0.00258
974.182	0.00249
983.827	0.00249
993.472	0.00248
1003.12	0.00254
1012.76	0.00258
1022.41	0.00284
1032.05	0.00297
1041.7	0.00336
1051.34	0.0037
1060.99	0.00341
1070.63	0.00317
1080.28	0.0034
1089.92	0.00409
1099.57	0.0052
1109.21	0.00692
1118.86	0.00892
1128.5	0.00971
1138.15	0.01005
1147.79	0.01171
1157.44	0.01121
1167.08	0.00732
1176.73	0.006
1186.37	0.00639
1196.02	0.0081
1205.66	0.01144
1215.31	0.01154
1224.95	0.00851
1234.6	0.00528
1244.24	0.00365
1253.89	0.00313
1263.53	0.003
1273.18	0.00285
1282.82	0.00293
1292.47	0.00308
1302.11	0.00318
1311.76	0.00334
1321.4	0.00422
1331.05	0.00501
1340.69	0.00403
1350.34	0.00309
1359.98	0.0028
1369.63	0.00291
1379.27	0.0033
1388.92	0.00442
1398.56	0.00665
1408.21	0.00703
1417.85	0.00537
1427.5	0.00455
1437.14	0.00439
1446.79	0.00437
1456.43	0.00575
1466.08	0.00668
1475.73	0.00521
1485.37	0.00384
1495.02	0.00324
1504.66	0.00313
1514.31	0.00307
1523.95	0.00309
1533.6	0.00338
1543.24	0.00374
1552.89	0.00461
1562.53	0.0066
1572.18	0.00967
1581.82	0.01209
1591.47	0.01378
1601.11	0.01587
1610.76	0.01236
1620.4	0.0068
1630.05	0.00458
1639.69	0.00382
1649.34	0.00352
1658.98	0.00339
1668.63	0.00346
1678.27	0.00364
1687.92	0.00425
1697.56	0.0075
1707.21	0.01326
1716.85	0.00893
1726.5	0.00394
1736.14	0.00316
1745.79	0.00296
1755.43	0.00286
1765.08	0.00273
1774.72	0.00262
1784.37	0.00254
1794.01	0.00253
1803.66	0.0025
1813.3	0.00253
1822.95	0.00246
1832.59	0.00245
1842.24	0.00251
1851.88	0.00244
1861.53	0.00244
1871.17	0.00243
1880.82	0.00243
1890.46	0.00245
1900.11	0.00243
1909.75	0.00246
1919.4	0.00239
1929.04	0.00245
1938.69	0.00248
1948.33	0.00249
1957.98	0.00245
1967.62	0.0025
1977.27	0.00252
1986.91	0.00246
1996.56	0.00248
2006.2	0.00243
2015.85	0.00247
2025.49	0.00242
2035.14	0.00245
2044.78	0.00247
2054.43	0.00248
2064.07	0.00251
2073.72	0.00254
2083.36	0.00253
2093.01	0.00258
2102.65	0.00257
2112.3	0.00252
2121.94	0.00252
2131.59	0.00253
2141.23	0.0025
2150.88	0.00256
2160.52	0.00252
2170.17	0.00258
2179.81	0.00256
2189.46	0.00251
2199.1	0.00246
2208.75	0.00249
2218.39	0.00251
2228.04	0.00252
2237.68	0.00253
2247.33	0.00259
2256.97	0.00259
2266.62	0.00257
2276.26	0.00259
2285.91	0.00256
2295.55	0.00251
2305.2	0.00256
2314.84	0.00247
2324.49	0.00252
2334.13	0.00258
2343.78	0.00256
2353.42	0.00256
2363.07	0.00257
2372.72	0.00259
2382.36	0.00261
2392.01	0.00257
2401.65	0.00257
2411.3	0.0026
2420.94	0.00256
2430.59	0.00253
2440.23	0.0025
2449.88	0.00259
2459.52	0.00251
2469.17	0.00256
2478.81	0.0026
2488.46	0.00257
2498.1	0.00256
2507.75	0.00254
2517.39	0.00263
2527.04	0.0026
2536.68	0.00263
2546.33	0.0026
2555.97	0.0026
2565.62	0.00262
2575.26	0.00259
2584.91	0.00265
2594.55	0.00256
2604.2	0.00259
2613.84	0.0027
2623.49	0.00263
2633.13	0.00261
2642.78	0.0027
2652.42	0.00266
2662.07	0.00266
2671.71	0.00267
2681.36	0.00272
2691	0.00268
2700.65	0.0027
2710.29	0.00276
2719.94	0.00274
2729.58	0.00286
2739.23	0.00292
2748.87	0.003
2758.52	0.00327
2768.16	0.00339
2777.81	0.00332
2787.45	0.00319
2797.1	0.00304
2806.74	0.00309
2816.39	0.00316
2826.03	0.00337
2835.68	0.00402
2845.32	0.00487
2854.97	0.00492
2864.61	0.00461
2874.26	0.00416
2883.9	0.00385
2893.55	0.00379
2903.19	0.00373
2912.84	0.00382
2922.48	0.004
2932.13	0.00446
2941.77	0.00544
2951.42	0.00563
2961.06	0.00508
2970.71	0.00455
2980.35	0.00385
2990	0.00363
2999.64	0.00405
3009.29	0.00475
3018.93	0.0042
3028.58	0.00329
3038.22	0.00302
3047.87	0.00297
3057.51	0.00293
3067.16	0.00288
3076.8	0.00287
3086.45	0.00292
3096.09	0.00287
3105.74	0.00276
3115.38	0.00287
3125.03	0.00279
3134.67	0.00277
3144.32	0.00265
3153.96	0.00269
3163.61	0.00284
3173.25	0.00274
3182.9	0.00278
3192.54	0.00275
3202.19	0.00265
3211.83	0.00262
3221.48	0.00282
3231.12	0.00258
3240.77	0.00277
3250.41	0.00264
3260.06	0.00266
3269.7	0.00275
3279.35	0.00258
3289	0.0026
3298.64	0.00263
3308.29	0.00273
3317.93	0.00264
3327.58	0.00274
3337.22	0.00263
3346.87	0.00255
3356.51	0.00267
3366.16	0.00261
3375.8	0.00264
3385.45	0.00273
3395.09	0.00277
3404.74	0.00282
3414.38	0.00262
3424.03	0.00262
3433.67	0.00261
3443.32	0.0026
3452.96	0.00258
3462.61	0.00264
3472.25	0.00268
3481.9	0.00264
3491.54	0.00257
3501.19	0.00266
3510.83	0.0026
3520.48	0.00269
3530.12	0.00257
3539.77	0.00271
3549.41	0.00255
3559.06	0.00255
3568.7	0.00268
3578.35	0.00266
3587.99	0.00258
3597.64	0.00273
3607.28	0.00276
3616.93	0.00269
3626.57	0.0027
3636.22	0.00269
3645.86	0.00279
3655.51	0.00273
3665.15	0.00265
3674.8	0.0027
3684.44	0.00265
3694.09	0.00265
3703.73	0.00267
3713.38	0.0027
3723.02	0.0026
3732.67	0.00289
3742.31	0.00277
3751.96	0.00274
3761.6	0.0027
3771.25	0.00272
3780.89	0.0027
3790.54	0.00283
3800.18	0.00268
3809.83	0.0027
3819.47	0.0027
3829.12	0.00278
3838.76	0.00266
3848.41	0.00267
3858.05	0.00264
3867.7	0.00274
3877.34	0.0027
3886.99	0.00278
3896.63	0.00269
3906.28	0.00266
3915.92	0.00278
3925.57	0.00274
3935.21	0.00272
3944.86	0.0028
3954.5	0.00277
3964.15	0.00273
3973.79	0.00285
3983.44	0.00284
3993.08	0.0028
