Infrared Spectrum: Cyclododecanone
Formula: C 12 H 22 O
CAS: 830-13-7
State: gas
Instrument: HP-GC/MS/IRD
Origin: NIST Mass Spectrometry Data Center
1/CM	ABSORBANCE
550	0.0005829
562	0.000469
574	0.0005025
586	0.0003685
598	0.0002613
610	0.0002144
622	0.0001742
634	8.71e-05
646	5.36e-05
658	4.02e-05
670	0.000134
682	0.0003484
694	0.0008375
706	0.0015075
718	0.0022713
730	0.0017755
742	0.0009782
754	0.0006901
766	0.0007303
778	0.0006499
790	0.0005963
802	0.0005963
814	0.0006432
826	0.0007035
838	0.0006231
850	0.0007303
862	0.0006298
874	0.0004891
886	0.000402
898	0.0004489
910	0.0005159
922	0.0006499
934	0.0008509
946	0.0011189
958	0.0010385
970	0.0008978
982	0.0009849
994	0.0013668
1006	0.0018492
1018	0.0020435
1030	0.0016147
1042	0.0015008
1054	0.0015142
1066	0.0021038
1078	0.0028207
1090	0.0028475
1102	0.003015
1114	0.0027671
1126	0.0022981
1138	0.0017219
1150	0.0017822
1162	0.0023785
1174	0.0023785
1186	0.0022445
1198	0.0024522
1210	0.0023115
1222	0.0023115
1234	0.0024723
1246	0.0024053
1258	0.0019229
1270	0.0017822
1282	0.002144
1294	0.0023048
1306	0.0019028
1318	0.0020569
1330	0.0027135
1342	0.0043885
1354	0.0053868
1366	0.0038994
1378	0.0018224
1390	0.0012328
1402	0.0017085
1414	0.0032763
1426	0.0047637
1438	0.0061707
1450	0.0079663
1462	0.0074772
1474	0.0057419
1486	0.0019162
1498	0.000804
1510	0.0006298
1522	0.0004288
1534	0.0002881
1546	0.0002747
1558	0.0002412
1570	0.0001876
1582	0.0001742
1594	0.0001943
1606	0.0001943
1618	0.0002613
1630	0.0003551
1642	0.0004958
1654	0.0007571
1666	0.0010653
1678	0.0016415
1690	0.0025661
1702	0.0066799
1714	0.0198789
1726	0.0213328
1738	0.0062712
1750	0.0020636
1762	0.0011658
1774	0.0008509
1786	0.0006298
1798	0.000402
1810	0.0002747
1822	0.0001943
1834	0.000134
1846	0.0001541
1858	0.0001005
1870	9.38e-05
1882	6.03e-05
1894	6.03e-05
1906	4.69e-05
1918	2.68e-05
1930	2.01e-05
1942	2.01e-05
1954	0
1966	0
1978	0
1990	2.68e-05
2002	2.01e-05
2014	2.68e-05
2026	4.02e-05
2038	2.68e-05
2050	4.69e-05
2062	4.69e-05
2074	3.35e-05
2086	4.69e-05
2098	3.35e-05
2110	4.69e-05
2122	6.03e-05
2134	5.36e-05
2146	6.03e-05
2158	5.36e-05
2170	4.69e-05
2182	4.02e-05
2194	4.02e-05
2206	4.69e-05
2218	5.36e-05
2230	4.02e-05
2242	5.36e-05
2254	5.36e-05
2266	4.69e-05
2278	6.03e-05
2290	4.02e-05
2302	2.68e-05
2314	3.35e-05
2326	0
2338	0
2350	2.01e-05
2362	0
2374	2.01e-05
2386	0
2398	6.7e-06
2410	2.68e-05
2422	1.34e-05
2434	2.01e-05
2446	3.35e-05
2458	1.34e-05
2470	1.34e-05
2482	2.68e-05
2494	2.68e-05
2506	7.37e-05
2518	8.71e-05
2530	0.0001206
2542	0.0001541
2554	0.0001139
2566	0.0001139
2578	0.0001273
2590	0.0001474
2602	0.0002077
2614	0.0002546
2626	0.0003149
2638	0.0004087
2650	0.000536
2662	0.0006834
2674	0.0008643
2686	0.0008844
2698	0.0007437
2710	0.000603
2722	0.0005427
2734	0.0005494
2746	0.0005963
2758	0.0006633
2770	0.0007839
2782	0.0009782
2794	0.001273
2806	0.0017018
2818	0.0023383
2830	0.003216
2842	0.0056816
2854	0.0158723
2866	0.0234634
2878	0.0221234
2890	0.018224
2902	0.0240932
2914	0.0406422
2926	0.0562264
2938	0.067
2950	0.0494929
2962	0.0312689
2974	0.0145725
2986	0.0064521
2998	0.003618
3010	0.0023383
3022	0.0015611
3034	0.0010519
3046	0.0007772
3058	0.0006566
3070	0.0005628
3082	0.0004757
3094	0.0003886
3106	0.0003551
3118	0.0003149
3130	0.0003216
3142	0.0003015
3154	0.0003015
3166	0.0002613
3178	0.0002613
3190	0.0002479
3202	0.000268
3214	0.0002278
3226	0.0002412
3238	0.0002144
3250	0.0001608
3262	0.000134
3274	0.0001206
3286	0.0001541
3298	0.0001072
3310	0.0001206
3322	0.0001273
3334	0.0001139
3346	0.000134
3358	0.0001273
3370	0.0001273
3382	0.0001675
3394	0.0001943
3406	0.0003149
3418	0.0005293
3430	0.000469
3442	0.0002479
3454	0.000134
3466	0.0001139
3478	0.0001005
3490	4.02e-05
3502	0.0001005
3514	1.34e-05
3526	7.37e-05
3538	3.35e-05
3550	6.03e-05
3562	2.01e-05
3574	4.02e-05
3586	0.0001206
3598	0.0001072
3610	0.000134
3622	9.38e-05
3634	8.71e-05
3646	0.0001273
3658	0.0001005
3670	0.0001139
3682	7.37e-05
3694	9.38e-05
3706	7.37e-05
3718	6.7e-05
3730	0.0001273
3742	0.0001206
3754	8.71e-05
3766	8.04e-05
3778	2.68e-05
3790	6.7e-06
3802	6.7e-05
3814	8.04e-05
3826	4.69e-05
3838	7.37e-05
