Infrared Spectrum: Cycloundecanecarboxylic acid
Formula: C12 H22 O2
CAS: 831-67-4
State: SOLUTION (10% CCl4 FOR 3800-1330, 6% CS2 FOR 1330-450 CM^-^1)
Class: COBLENTZ III
Instrument: DOW KBr FOREPRISM-GRATING
Instrument parameters: BLAZED AT 3.5, 12.0, 20.0 MICRON AND CHANGED AT 5.0, 7.5, 14.9 MICRON
Sampling: TRANSMISSION
Path length: 0.011 CM, 0.011 CM
Resolution: 2
Origin: DOW CHEMICAL COMPANY
1/CM	TRANSMITTANCE
3800	0.9718
3791	0.9763
3782	0.9761
3773	0.9755
3764	0.9754
3755	0.976
3746	0.9795
3737	0.9856
3728	0.9875
3719	0.982
3710	0.9799
3701	0.9762
3692	0.9705
3683	0.967
3674	0.9669
3665	0.967
3656	0.9673
3647	0.969
3638	0.9741
3629	0.969
3620	0.9688
3611	0.9689
3602	0.9653
3593	0.9655
3584	0.9657
3575	0.9644
3566	0.963
3557	0.9602
3548	0.9531
3539	0.9409
3530	0.9287
3521	0.9229
3512	0.9304
3503	0.9359
3494	0.9375
3485	0.9356
3476	0.9271
3467	0.9158
3458	0.9067
3449	0.9008
3440	0.8971
3431	0.8935
3422	0.888
3413	0.8766
3404	0.8641
3395	0.8561
3386	0.8454
3377	0.8323
3368	0.8171
3359	0.8016
3350	0.7857
3341	0.7707
3332	0.7585
3323	0.7463
3314	0.7325
3305	0.7176
3296	0.6977
3287	0.679
3278	0.6611
3269	0.6388
3260	0.6166
3251	0.5955
3242	0.5761
3233	0.5532
3224	0.5232
3215	0.4944
3206	0.4682
3197	0.4471
3188	0.4254
3179	0.4029
3170	0.3857
3161	0.3703
3152	0.3582
3143	0.3398
3134	0.3195
3125	0.3001
3116	0.2792
3107	0.254
3098	0.2301
3089	0.2205
3080	0.213
3071	0.207
3062	0.1977
3053	0.189
3044	0.1819
3035	0.1738
3026	0.1627
3017	0.153
3008	0.1431
2999	0.1327
2990	0.1169
2981	0.0854
2972	0.0413
2963	-0.0036
2954	-0.0036
2945	-0.0036
2936	-0.0036
2927	-0.0036
2918	-0.0036
2909	-0.0036
2900	-0.0036
2891	0.0046
2882	0.0158
2873	-0.0031
2864	-0.0036
2855	-0.0036
2846	0.1167
2837	0.1821
2828	0.223
2819	0.2561
2810	0.2897
2801	0.3163
2792	0.3365
2783	0.3566
2774	0.3727
2765	0.3828
2756	0.3906
2747	0.397
2738	0.4007
2729	0.4031
2720	0.4047
2711	0.4017
2702	0.3921
2693	0.3825
2684	0.3715
2675	0.3681
2666	0.3725
2657	0.3787
2648	0.3845
2639	0.3917
2630	0.3992
2621	0.4082
2612	0.4169
2603	0.4271
2594	0.4386
2585	0.4474
2576	0.4562
2567	0.4654
2558	0.4761
2549	0.4888
2540	0.5061
2531	0.5252
2522	0.5455
2513	0.5664
2504	0.59
2495	0.615
2486	0.6377
2477	0.6591
2468	0.6792
2459	0.699
2450	0.7159
2441	0.7302
2432	0.7434
2423	0.7581
2414	0.7692
2405	0.7831
2396	0.7944
2387	0.8087
2378	0.8234
2369	0.8292
2360	0.831
2351	0.8347
2342	0.8381
2333	0.8438
2324	0.85
2315	0.852
2306	0.854
2297	0.8586
2288	0.861
2279	0.8639
2270	0.8671
2261	0.8706
2252	0.8744
2243	0.8772
2234	0.8809
2225	0.8852
2216	0.885
2207	0.8859
2198	0.8852
2189	0.882
2180	0.8798
2171	0.8802
2162	0.8784
2153	0.8806
2144	0.8834
2135	0.8865
2126	0.8897
2117	0.8925
2108	0.8949
2099	0.8957
2090	0.8955
2081	0.8947
2072	0.8928
2063	0.892
2054	0.8919
2045	0.8885
2036	0.8871
2027	0.8864
2018	0.8857
2009	0.8842
2000	0.8682
1991	0.8594
1982	0.8636
1973	0.8606
1964	0.8585
1955	0.8581
1946	0.8534
1937	0.8506
1928	0.8473
1919	0.8429
1910	0.8386
1901	0.8352
1892	0.8301
1883	0.8244
1874	0.8183
1865	0.8103
1856	0.8035
1847	0.7981
1838	0.795
1829	0.7916
1820	0.7911
1811	0.7922
1802	0.7886
1793	0.7857
1784	0.7789
1775	0.7679
1766	0.7254
1757	0.6327
1748	0.5717
1739	0.5073
1730	0.4139
1721	0.1646
1712	-0.0036
1703	-0.0036
1694	-0.0036
1685	0.0917
1676	0.3076
1667	0.4297
1658	0.5465
1649	0.6128
1640	0.6365
1631	0.6607
1622	0.7165
1613	0.7743
1604	0.8124
1595	0.8066
1586	0.8052
1577	0.8151
1568	0.7823
1559	0.7301
1550	0.7808
1541	0.8285
1532	0.7902
1523	0.7802
1514	0.7783
1505	0.7786
1496	0.7798
1487	0.7613
1478	0.345
1469	0.2934
1460	0.433
1451	0.2767
1442	0.2691
1433	0.4701
1424	0.3373
1415	0.2457
1406	0.445
1397	0.6725
1388	0.7564
1379	0.784
1370	0.7658
1361	0.7056
1352	0.6366
1343	0.6094
1334	0.5659
1325	0.5859
1316	0.569
1307	0.5466
1298	0.4412
1289	0.3396
1280	0.4083
1271	0.4788
1262	0.4843
1253	0.4577
1244	0.4224
1235	0.4627
1226	0.436
1217	0.422
1208	0.4989
1199	0.5589
1190	0.6269
1181	0.6834
1172	0.7342
1163	0.7523
1154	0.7781
1145	0.7709
1136	0.7846
1127	0.8139
1118	0.8151
1109	0.7928
1100	0.809
1091	0.8187
1082	0.8158
1073	0.816
1064	0.822
1055	0.8275
1046	0.8321
1037	0.8333
1028	0.8183
1019	0.8147
1010	0.828
1001	0.8094
992	0.7886
983	0.7623
974	0.6984
965	0.6583
956	0.6016
947	0.533
938	0.5003
929	0.5081
920	0.5502
911	0.6089
902	0.6482
893	0.6941
884	0.735
875	0.75
866	0.747
857	0.7559
848	0.7432
839	0.7454
830	0.7867
821	0.8142
812	0.8212
803	0.8237
794	0.8253
785	0.8411
776	0.8115
767	0.8121
758	0.7912
749	0.8131
740	0.7943
731	0.773
722	0.7697
713	0.7946
704	0.7993
695	0.8254
686	0.8532
677	0.8693
668	0.8921
659	0.8765
650	0.8549
641	0.8585
632	0.8694
623	0.8851
614	0.8974
605	0.9009
596	0.8985
587	0.8951
578	0.8904
569	0.8885
560	0.8809
551	0.8622
542	0.8393
533	0.8251
524	0.8261
515	0.8367
506	0.8461
497	0.8503
488	0.8497
479	0.8487
470	0.848
461	0.8472
