Infrared Spectrum: GALLIC ACID, ETHYL ESTER
Formula: C9 H10 O5
CAS: 831-61-8
State: SOLID (OIL MULL)
Class: COBLENTZ III
Instrument: BAIRD (GRATING)
Instrument parameters: NaCl PRISM
Sampling: TRANSMISSION
Path length: CAPILLARY
Resolution: 2
Origin: WYANDOTTE CHEMICALS CORP.
1/CM	TRANSMITTANCE
4000	0.8948
3991	0.8957
3982	0.8966
3973	0.8975
3964	0.8986
3955	0.8996
3946	0.9006
3937	0.9016
3928	0.9025
3919	0.9034
3910	0.9043
3901	0.9053
3892	0.9062
3883	0.907
3874	0.908
3865	0.9089
3856	0.9099
3847	0.9109
3838	0.9118
3829	0.9128
3820	0.914
3811	0.915
3802	0.9161
3793	0.9171
3784	0.9183
3775	0.9192
3766	0.9202
3757	0.9211
3748	0.9221
3739	0.923
3730	0.924
3721	0.9251
3712	0.9271
3703	0.9293
3694	0.9318
3685	0.9343
3676	0.9357
3667	0.9364
3658	0.9359
3649	0.9354
3640	0.9349
3631	0.9345
3622	0.934
3613	0.9335
3604	0.9328
3595	0.9293
3586	0.922
3577	0.9125
3568	0.9027
3559	0.8927
3550	0.8748
3541	0.8218
3532	0.7825
3523	0.7428
3514	0.7031
3505	0.6631
3496	0.6229
3487	0.5825
3478	0.5419
3469	0.501
3460	0.46
3451	0.4188
3442	0.3773
3433	0.3356
3424	0.2937
3415	0.2515
3406	0.2092
3397	0.2096
3388	0.217
3379	0.2309
3370	0.2448
3361	0.2531
3352	0.2529
3343	0.2368
3334	0.2193
3325	0.2016
3316	0.1837
3307	0.1661
3298	0.1481
3289	0.1301
3280	0.1124
3271	0.1064
3262	0.1057
3253	0.1121
3244	0.1499
3235	0.1994
3226	0.243
3217	0.2753
3208	0.3148
3199	0.3546
3190	0.3946
3181	0.4348
3172	0.4753
3163	0.516
3154	0.5466
3145	0.563
3136	0.5808
3127	0.6117
3118	0.646
3109	0.6574
3100	0.6658
3091	0.6717
3082	0.673
3073	0.6725
3064	0.6721
3055	0.6731
3046	0.6751
3037	0.6745
3028	0.6695
3019	0.6054
3010	0.5324
3001	0.5099
2992	0.4168
2983	0.323
2974	0.2287
2965	0.1339
2956	0.0467
2947	0.0321
2938	0.0274
2929	0.026
2920	0.0274
2911	0.0292
2902	0.0386
2893	0.066
2884	0.1168
2875	0.1262
2866	0.128
2857	0.1263
2848	0.1136
2839	0.1008
2830	0.0989
2821	0.3089
2812	0.7275
2803	0.7284
2794	0.7346
2785	0.7571
2776	0.7732
2767	0.7874
2758	0.7971
2749	0.8024
2740	0.8044
2731	0.8037
2722	0.8025
2713	0.8021
2704	0.8017
2695	0.8012
2686	0.8011
2677	0.8011
2668	0.8012
2659	0.803
2650	0.8076
2641	0.8183
2632	0.8296
2623	0.8346
2614	0.8401
2605	0.8449
2596	0.8496
2587	0.8533
2578	0.8566
2569	0.8583
2560	0.8596
2551	0.8609
2542	0.8639
2533	0.8686
2524	0.873
2515	0.8764
2506	0.8784
2497	0.8805
2488	0.8825
2479	0.8846
2470	0.8878
2461	0.8918
2452	0.8956
2443	0.8981
2434	0.9
2425	0.9014
2416	0.9006
2407	0.8997
2398	0.9003
2389	0.901
2380	0.902
2371	0.9034
2362	0.9052
2353	0.9103
2344	0.9162
2335	0.9213
2326	0.9217
2317	0.9224
2308	0.9238
2299	0.9255
2290	0.9282
2281	0.9308
2272	0.9335
2263	0.9357
2254	0.9374
2245	0.939
2236	0.9407
2227	0.9424
2218	0.9443
2209	0.9462
2200	0.948
2191	0.9495
2182	0.9487
2173	0.9481
2164	0.9474
2155	0.946
2146	0.9478
2137	0.95
2128	0.9524
2119	0.9548
2110	0.9557
2101	0.9565
2092	0.9575
2083	0.9584
2074	0.9591
2065	0.9599
2056	0.9607
2047	0.9616
2038	0.9625
2029	0.9628
2020	0.9632
2011	0.9632
2002	0.9631
1993	0.963
1984	0.9628
1975	0.9625
1966	0.9624
1957	0.9623
1948	0.9621
1939	0.9621
1930	0.9624
1921	0.9638
1912	0.9655
1903	0.9645
1894	0.9625
1885	0.9643
1876	0.9662
1867	0.9681
1858	0.9678
1849	0.9642
1840	0.9603
1831	0.9578
1822	0.9588
1813	0.9612
1804	0.961
1795	0.9504
1786	0.9412
1777	0.9359
1768	0.921
1759	0.9013
1750	0.7958
1741	0.7672
1732	0.4935
1723	0.1566
1714	0.0395
1705	0.1672
1696	0.5192
1687	0.7511
1678	0.8115
1669	0.8168
1660	0.7978
1651	0.615
1642	0.3021
1633	0.1213
1624	0.4169
1615	0.7685
1606	0.7765
1597	0.8271
1588	0.8421
1579	0.8471
1570	0.8142
1561	0.7348
1552	0.2561
1543	0.4206
1534	0.7651
1525	0.7999
1516	0.8057
1507	0.783
1498	0.7091
1489	0.319
1480	0.1455
1471	0.2612
1462	0.364
1453	0.487
1444	0.6107
1435	0.5503
1426	0.3103
1417	0.2499
1408	0.444
1399	0.2618
1390	0.0952
1381	0.2621
1372	0.332
1363	0.3477
1354	0.2652
1345	0.181
1336	0.0959
1327	0.0325
1318	0.0391
1309	0.1611
1300	0.3271
1291	0.429
1282	0.3957
1273	0.2124
1264	0.054
1255	0.132
1246	0.3425
1237	0.4044
1228	0.4307
1219	0.3434
1210	0.1312
1201	0.0922
1192	0.284
1183	0.3724
1174	0.4755
1165	0.54
1156	0.5573
1147	0.6136
1138	0.643
1129	0.6376
1120	0.5878
1111	0.5834
1102	0.4567
1093	0.6162
1084	0.6539
1075	0.6571
1066	0.597
1057	0.3564
1048	0.0856
1039	0.2503
1030	0.2034
1021	0.5099
1012	0.6798
1003	0.7539
994	0.7762
985	0.7878
976	0.7558
967	0.5243
958	0.7754
949	0.8136
940	0.8214
931	0.8306
922	0.8415
913	0.8499
904	0.8513
895	0.8464
886	0.8545
877	0.7601
868	0.6637
859	0.8434
850	0.8704
841	0.8977
832	0.9071
823	0.9007
814	0.8031
805	0.8904
796	0.8698
787	0.8828
778	0.8402
769	0.5188
760	0.5921
751	0.4145
742	0.7314
733	0.5043
724	0.7617
715	0.8228
706	0.8556
697	0.8496
688	0.8299
679	0.803
670	0.7484
661	0.6906
652	0.6697
643	0.6132
634	0.5957
