Infrared Spectrum: Pentaflurobenzenesulfonyl chloride
Formula: C 6 Cl F 5 O 2 S
CAS: 832-53-1
State: gas
Origin: EPA-IR VAPOR PHASE LIBRARY
1/CM	ABSORBANCE
549.8	0.094136
559.445	0.159926
569.09	0.253636
578.734	0.161976
588.379	0.110586
598.024	0.141466
607.669	0.034556
617.313	0.013976
626.958	0.015776
636.603	0.027596
646.248	0.055286
655.893	0.050056
665.537	0.012546
675.182	0.003496
684.827	0.001886
694.472	0.0013727
704.116	0.0014941
713.761	0.001686
723.406	0.006966
733.051	0.013586
742.695	0.004756
752.34	0.003306
761.985	0.002836
771.63	0.002876
781.275	0.002616
790.919	0.002916
800.564	0.001636
810.209	0.001646
819.854	0.001766
829.498	0.002076
839.143	0.003046
848.788	0.005186
858.433	0.003946
868.078	0.001876
877.722	0.0008174
887.367	0.00057755
897.012	0.0006532
906.657	0.0011725
916.301	0.0013458
925.946	0.001756
935.591	0.002416
945.236	0.003726
954.88	0.006186
964.525	0.009506
974.17	0.013886
983.815	0.038756
993.46	0.153716
1003.1	0.168976
1012.75	0.055186
1022.39	0.039876
1032.04	0.031206
1041.68	0.014776
1051.33	0.008296
1060.97	0.009916
1070.62	0.011786
1080.26	0.014626
1089.91	0.035106
1099.55	0.116336
1109.2	0.181396
1118.84	0.084976
1128.49	0.028566
1138.13	0.026116
1147.78	0.023846
1157.42	0.028406
1167.07	0.033306
1176.71	0.039966
1186.36	0.101376
1196	0.201606
1205.64	0.125026
1215.29	0.032846
1224.93	0.017616
1234.58	0.012336
1244.22	0.013236
1253.87	0.013506
1263.51	0.009416
1273.16	0.008576
1282.8	0.012276
1292.45	0.030386
1302.09	0.081356
1311.74	0.059846
1321.38	0.009756
1331.03	0.004286
1340.67	0.003646
1350.32	0.003456
1359.96	0.004056
1369.61	0.005866
1379.25	0.010986
1388.9	0.023486
1398.54	0.047766
1408.18	0.051386
1417.83	0.077836
1427.47	0.063156
1437.12	0.025056
1446.76	0.019726
1456.41	0.015826
1466.05	0.026286
1475.7	0.062786
1485.34	0.150356
1494.99	0.410546
1504.63	0.629816
1514.28	0.416316
1523.92	0.222426
1533.57	0.078046
1543.21	0.035616
1552.86	0.020456
1562.5	0.014096
1572.15	0.013796
1581.79	0.015606
1591.44	0.018376
1601.08	0.018066
1610.73	0.015856
1620.37	0.027906
1630.01	0.055046
1639.66	0.055626
1649.3	0.021736
1658.95	0.008406
1668.59	0.005396
1678.24	0.005376
1687.88	0.005986
1697.53	0.007156
1707.17	0.005566
1716.82	0.003106
1726.46	0.002836
1736.11	0.002716
1745.75	0.003486
1755.4	0.004026
1765.04	0.002486
1774.69	0.001716
1784.33	0.001696
1793.98	0.001656
1803.62	0.0011019
1813.27	0.0007271
1822.91	0.0006503
1832.55	0.0006881
1842.2	0.0006777
1851.84	0.0008968
1861.49	0.0012221
1871.13	0.0013353
1880.78	0.0010647
1890.42	0.0008623
1900.07	0.0010374
1909.71	0.0008854
1919.36	0.0007098
1929	0.0006925
1938.65	0.0006261
1948.29	0.00055366
1957.94	0.0005967
1967.58	0.0008079
1977.23	0.000947
1986.87	0.0010402
1996.52	0.0012112
2006.16	0.0013827
2015.81	0.0010565
2025.45	0.000503444
2035.1	0.00050947
2044.74	0.00059598
2054.38	0.0010013
2064.03	0.0013047
2073.67	0.001586
2083.32	0.0013628
2092.96	0.0010387
2102.61	0.0008317
2112.25	0.0006243
2121.9	0.00052123
2131.54	0.0004842
2141.19	0.0006581
2150.83	0.0010674
2160.48	0.0009853
2170.12	0.0006078
2179.77	0.00058781
2189.41	0.00079
2199.06	0.0011117
2208.7	0.0014805
2218.35	0.0013164
2227.99	0.0009077
2237.64	0.0005558
2247.28	0.0004808
2256.92	0.0006461
2266.57	0.0006646
2276.21	0.0006293
2285.86	0.00053114
2295.5	0.0007471
2305.15	0.0008578
2314.79	0.0007611
2324.44	0.00058757
2334.08	0.0006042
2343.73	0.0007938
2353.37	0.0011281
2363.02	0.0014864
2372.66	0.001556
2382.31	0.001706
2391.95	0.002056
2401.6	0.002106
2411.24	0.001616
2420.89	0.0011539
2430.53	0.0010436
2440.18	0.0010605
2449.82	0.0013835
2459.47	0.001976
2469.11	0.002026
2478.75	0.001616
2488.4	0.001706
2498.04	0.002046
2507.69	0.002466
2517.33	0.002436
2526.98	0.002206
2536.62	0.002306
2546.27	0.002476
2555.91	0.002656
2565.56	0.002266
2575.2	0.001556
2584.85	0.001816
2594.49	0.002616
2604.14	0.004226
2613.78	0.004646
2623.43	0.003266
2633.07	0.002016
2642.72	0.001576
2652.36	0.001576
2662.01	0.001826
2671.65	0.001656
2681.29	0.0012
2690.94	0.0006664
2700.58	0.0006521
2710.23	0.00058335
2719.87	0.00054974
2729.52	0.0007383
2739.16	0.0009049
2748.81	0.0010711
2758.45	0.0009256
2768.1	0.0007433
2777.74	0.0007752
2787.39	0.000806
2797.03	0.0007537
2806.68	0.00053153
2816.32	0.0006133
2825.97	0.0006195
2835.61	0.0006276
2845.26	0.0004278
2854.9	0.000256
2864.55	0.0004683
2874.19	0.0006487
2883.84	0.0008833
2893.48	0.0013421
2903.12	0.001516
2912.77	0.0014423
2922.41	0.0011188
2932.06	0.0009925
2941.7	0.0006763
2951.35	0.00053286
2960.99	0.0004604
2970.64	0.000275
2980.28	0.000198
2989.93	0.000362
2999.57	0.00053115
3009.22	0.0006825
3018.86	0.0007993
3028.51	0.0009273
3038.15	0.000864
3047.8	0.0006619
3057.44	0.000382
3067.09	0.000311
3076.73	0.000251
3086.38	0.00028
3096.02	0.000335
3105.67	0.0005498
3115.31	0.000717
3124.95	0.0006941
3134.6	0.0007016
3144.24	0.0006317
3153.89	0.0004302
3163.53	0.0004236
3173.18	0.000164
3182.82	0.000135
3192.47	0.000247
3202.11	0.000196
3211.76	0.000333
3221.4	0.000166
3231.05	0.000249
3240.69	0.00034
3250.34	0.000333
3259.98	0.0004613
3269.63	0.00056992
3279.27	0.000341
3288.92	0.000204
3298.56	0.000329
3308.21	0.00029
3317.85	0.000205
3327.49	0.000269
3337.14	0.000191
3346.78	0.0004387
3356.43	0.000362
3366.07	0.000226
3375.72	0.00031
3385.36	0.000321
3395.01	0.000297
3404.65	0.00024
3414.3	0.000202
3423.94	0.000196
3433.59	0.000133
3443.23	0.000212
3452.88	0.000393
3462.52	0.00035
3472.17	0.0004494
3481.81	0.000245
3491.46	0.000294
3501.1	0.000339
3510.75	0.000157
3520.39	0.000327
3530.04	0.0004209
3539.68	0.000274
3549.32	8.6e-05
3558.97	0.000269
3568.61	0.000245
3578.26	0.000341
3587.9	0.0004023
3597.55	0.0004849
3607.19	0.0004177
3616.84	0.000334
3626.48	0.0004301
3636.13	0.000332
3645.77	0.000149
3655.42	0.000221
3665.06	0.000297
3674.71	0.000217
3684.35	0.000339
3694	0.000371
3703.64	0.000298
3713.29	0.0004193
3722.93	0.000245
3732.58	0.000214
3742.22	0.000359
3751.86	0.0003996
3761.51	0.0004327
3771.15	0.00050854
3780.8	0.000377
3790.44	0.000289
3800.09	0.000318
3809.73	0.000235
3819.38	0.000381
3829.02	0.000256
3838.67	0.000231
3848.31	0.000321
3857.96	0.000246
3867.6	0.00015
3877.25	0.0004728
3886.89	0.00051883
3896.54	0.000317
3906.18	0.000294
3915.83	0.000373
3925.47	0.000314
3935.12	0.000122
3944.76	0.000327
3954.41	0.000386
3964.05	0.000361
3973.69	0.00049444
3983.34	0.000304
3992.98	0.0005367
