Infrared Spectrum: Cinnamic acid, p-methoxy-, methyl ester
Formula: C11 H12 O3
CAS: 832-01-9
State: SOLUTION 7% (CHCl3 FOR 2.5-15 microns)
Melting point: 87-89 C
Class: COBLENTZ
Instrument: PERKIN-ELMER 421 (GRATING)
Instrument parameters: RATING CHANGE AT 1999 CM^-^
Path length: 0.01 CM
Resolution: 2
Origin: ABBOTT LABORATORIES
1/CM	TRANSMITTANCE
719	0.717
728.016	0.7155
737.031	0.7146
746.047	0.7149
755.063	0.7163
764.078	0.7177
773.094	0.7178
782.11	0.7164
791.125	0.7063
800.141	0.6556
809.157	0.596
818.172	0.2571
827.188	0.3983
836.204	0.6443
845.219	0.6456
854.235	0.6521
863.251	0.7674
872.266	0.8192
881.282	0.8246
890.298	0.8259
899.313	0.8244
908.329	0.8147
917.345	0.7707
926.36	0.696
935.376	0.7405
944.392	0.7825
953.407	0.7777
962.423	0.7396
971.439	0.3217
980.454	0.4577
989.47	0.6859
998.486	0.6076
1007.5	0.4512
1016.52	0.3745
1025.53	0.2276
1034.55	0.4012
1043.56	0.6489
1052.58	0.7115
1061.6	0.7323
1070.61	0.7438
1079.63	0.7476
1088.64	0.7409
1097.66	0.6469
1106.67	0.6192
1115.69	0.7107
1124.7	0.7205
1133.72	0.6528
1142.74	0.4952
1151.75	0.0964
1160.77	0.0314
1169.78	0.0684
1178.8	0.1921
1187.81	0.2173
1196.83	0.2185
1205.85	0.2164
1214.86	0.2047
1223.88	0.1747
1232.89	0.1117
1241.91	0.0448
1250.92	0.0416
1259.94	0.0873
1268.96	0.2093
1277.97	0.164
1286.99	0.1674
1296	0.2186
1305.02	0.2523
1314.03	0.1892
1323.05	0.1967
1332.07	0.3942
1341.08	0.6154
1350.1	0.7016
1359.11	0.7512
1368.13	0.7673
1377.14	0.7725
1386.16	0.7741
1395.17	0.7837
1404.19	0.7408
1413.21	0.5368
1422.22	0.4318
1431.24	0.1732
1440.25	0.4136
1449.27	0.4686
1458.28	0.4797
1467.3	0.7185
1476.32	0.7298
1485.33	0.6724
1494.35	0.4441
1503.36	0.2653
1512.38	0.6659
1521.39	0.7557
1530.41	0.7592
1539.43	0.7471
1548.44	0.6871
1557.46	0.6225
1566.47	0.4556
1575.49	0.5516
1584.5	0.4034
1593.52	0.1496
1602.53	0.174
1611.55	0.4218
1620.57	0.3402
1629.58	0.1803
1638.6	0.5348
1647.61	0.6293
1656.63	0.612
1665.64	0.4321
1674.66	0.2465
1683.68	0.1685
1692.69	0.0455
1701.71	0.0569
1710.72	0.1126
1719.74	0.1692
1728.75	0.6132
1737.77	0.7451
1746.79	0.7868
1755.8	0.8169
1764.82	0.8297
1773.83	0.8317
1782.85	0.8466
1791.86	0.8538
1800.88	0.8599
1809.9	0.8652
1818.91	0.8655
1827.93	0.8625
1836.94	0.8572
1845.96	0.8476
1854.97	0.8383
1863.99	0.8382
1873	0.8291
1882.02	0.8375
1891.04	0.8529
1900.05	0.8592
1909.07	0.8617
1918.08	0.8546
1927.1	0.8526
1936.11	0.8523
1945.13	0.8519
1954.15	0.8516
1963.16	0.8569
1972.18	0.8581
1981.19	0.8551
1990.21	0.8376
1999.22	0.8679
2008.24	0.8563
2017.26	0.8504
2026.27	0.8539
2035.29	0.8575
2044.3	0.8602
2053.32	0.8638
2062.33	0.8678
2071.35	0.8708
2080.37	0.8703
2089.38	0.867
2098.4	0.8708
2107.41	0.8771
2116.43	0.8787
2125.44	0.8788
2134.46	0.8812
2143.47	0.8863
2152.49	0.888
2161.51	0.888
2170.52	0.8881
2179.54	0.887
2188.55	0.8877
2197.57	0.8884
2206.58	0.8891
2215.6	0.8885
2224.62	0.886
2233.63	0.8838
2242.65	0.8818
2251.66	0.8805
2260.68	0.8792
2269.69	0.8776
2278.71	0.8762
2287.73	0.8782
2296.74	0.8802
2305.76	0.8767
2314.77	0.8737
2323.79	0.8732
2332.8	0.8763
2341.82	0.8819
2350.83	0.8839
2359.85	0.8872
2368.87	0.8931
2377.88	0.9002
2386.9	0.9065
2395.91	0.8881
2404.93	0.8649
2413.94	0.8589
2422.96	0.8572
2431.98	0.8562
2440.99	0.8551
2450.01	0.8538
2459.02	0.8526
2468.04	0.8517
2477.05	0.849
2486.07	0.8475
2495.09	0.85
2504.1	0.8488
2513.12	0.8459
2522.13	0.8436
2531.15	0.8406
2540.16	0.838
2549.18	0.8398
2558.2	0.8492
2567.21	0.8532
2576.23	0.852
2585.24	0.8505
2594.26	0.8544
2603.27	0.8566
2612.29	0.8545
2621.3	0.8521
2630.32	0.8544
2639.34	0.8605
2648.35	0.8697
2657.37	0.8715
2666.38	0.8719
2675.4	0.8699
2684.41	0.8676
2693.43	0.8659
2702.45	0.8646
2711.46	0.8639
2720.48	0.8633
2729.49	0.862
2738.51	0.8567
2747.52	0.8463
2756.54	0.8365
2765.56	0.8373
2774.57	0.8461
2783.59	0.8389
2792.6	0.8331
2801.62	0.828
2810.63	0.8216
2819.65	0.8009
2828.67	0.6366
2837.68	0.6495
2846.7	0.7909
2855.71	0.8212
2864.73	0.8157
2873.74	0.7916
2882.76	0.7522
2891.77	0.6728
2900.79	0.6664
2909.81	0.709
2918.82	0.6697
2927.84	0.5687
2936.85	0.5635
2945.87	0.448
2954.88	0.5583
2963.9	0.6155
2972.92	0.6678
2981.93	0.6183
2990.95	0.5381
2999.96	0.458
3008.98	0.5341
3017.99	0.5423
3027.01	0.6146
3036.03	0.6968
3045.04	0.7361
3054.06	0.7545
3063.07	0.7662
3072.09	0.785
3081.1	0.8027
3090.12	0.8056
3099.14	0.8092
3108.15	0.8139
3117.17	0.8193
3126.18	0.8233
3135.2	0.8269
3144.21	0.8304
3153.23	0.8329
3162.24	0.8348
3171.26	0.8349
3180.28	0.8342
3189.29	0.8303
3198.31	0.8287
3207.32	0.8328
3216.34	0.8413
3225.35	0.8412
3234.37	0.8407
3243.39	0.8441
3252.4	0.8452
3261.42	0.8464
3270.43	0.8485
3279.45	0.8477
3288.46	0.8458
3297.48	0.8419
3306.5	0.8381
3315.51	0.8347
3324.53	0.832
3333.54	0.8305
3342.56	0.8321
3351.57	0.8314
3360.59	0.8288
3369.6	0.8259
3378.62	0.8234
3387.64	0.8232
3396.65	0.8254
3405.67	0.8285
3414.68	0.831
3423.7	0.833
3432.71	0.8339
3441.73	0.8345
3450.75	0.835
3459.76	0.8351
3468.78	0.8352
3477.79	0.8344
3486.81	0.8335
3495.82	0.8331
3504.84	0.8336
3513.86	0.8349
3522.87	0.8359
3531.89	0.8369
3540.9	0.8385
3549.92	0.8408
3558.93	0.8402
3567.95	0.8353
3576.97	0.8323
3585.98	0.8435
3595	0.8449
3604.01	0.8462
3613.03	0.8528
3622.04	0.854
3631.06	0.853
3640.07	0.8509
3649.09	0.8449
3658.11	0.8442
3667.12	0.8481
3676.14	0.8545
3685.15	0.8562
3694.17	0.8569
3703.18	0.8568
3712.2	0.856
3721.22	0.8548
3730.23	0.8533
3739.25	0.8524
3748.26	0.8519
3757.28	0.8518
3766.29	0.8528
3775.31	0.8537
3784.33	0.8538
3793.34	0.8538
3802.36	0.8537
3811.37	0.8536
3820.39	0.8527
3829.4	0.8512
3838.42	0.8487
3847.44	0.8466
3856.45	0.8455
3865.47	0.8448
3874.48	0.8444
3883.5	0.844
3892.51	0.8435
3901.53	0.843
3910.54	0.8422
3919.56	0.8415
3928.58	0.8407
3937.59	0.8398
3946.61	0.8399
3955.62	0.84
3964.64	0.8405
3973.65	0.8411
3982.67	0.8411
3991.69	0.8411
4000.7	0.8412
