Infrared Spectrum: 4-METHYL-PHENANTHRENE
Formula: C15 H12
CAS: 832-64-4
State: SOLUTION (100 g/L IN HEPTANE)
Class: COBLENTZ
Instrument: Not specified, most likely a prism, grating, or hybrid spectrometer.
Sampling: TRANSMISSION
Path length: 0.01 CM
Resolution: 4
Origin: CENTRE D'ETUDES NUCLEAIRES DE GRENOBLE
MICROMETERS	TRANSMITTANCE
1.978	0.915
2.01806	0.919
2.05812	0.922
2.09819	0.927
2.13825	0.925
2.17831	0.924
2.21837	0.93
2.25843	0.933
2.29849	0.933
2.33856	0.93
2.37862	0.933
2.41868	0.935
2.45874	0.933
2.4988	0.933
2.53886	0.935
2.57893	0.938
2.61899	0.942
2.65905	0.937
2.69911	0.938
2.73917	0.942
2.77923	0.945
2.8193	0.948
2.85936	0.952
2.89942	0.955
2.93948	0.957
2.97954	0.957
3.0196	0.955
3.05967	0.96
3.09973	0.958
3.13979	0.96
3.17985	0.958
3.21991	0.952
3.25997	0.933
3.30004	0.851
3.3401	0.623
3.38016	0.762
3.42022	0.813
3.46028	0.81
3.50035	0.805
3.54041	0.798
3.58047	0.798
3.62053	0.874
3.66059	0.947
3.70065	0.968
3.74072	0.965
3.78078	0.98
3.82084	0.978
3.8609	0.976
3.90096	0.976
3.94102	0.976
3.98109	0.978
4.02115	0.98
4.06121	0.98
4.10127	0.98
4.14133	0.981
4.18139	0.981
4.22146	0.985
4.26152	0.988
4.30158	0.986
4.34164	0.978
4.3817	0.976
4.42176	0.981
4.46183	0.983
4.50189	0.985
4.54195	0.988
4.58201	0.991
4.62207	0.991
4.66213	0.991
4.7022	0.99
4.74226	0.99
4.78232	0.991
4.82238	0.995
4.86244	0.996
4.90251	0.993
4.94257	0.993
4.98263	0.991
5.02269	0.991
5.06275	0.99
5.10281	0.993
5.14288	0.993
5.18294	0.976
5.223	0.94
5.26306	0.919
5.30312	0.924
5.34318	0.966
5.38325	0.983
5.42331	0.981
5.46337	0.963
5.50343	0.963
5.54349	0.97
5.58355	0.968
5.62362	0.96
5.66368	0.943
5.70374	0.93
5.7438	0.955
5.78386	0.976
5.82392	0.96
5.86399	0.966
5.90405	0.942
5.94411	0.947
5.98417	0.955
6.02423	0.958
6.06429	0.95
6.10436	0.945
6.14442	0.953
6.18448	0.952
6.22454	0.955
6.2646	0.947
6.30467	0.902
6.34473	0.922
6.38479	0.958
6.42485	0.935
6.46491	0.958
6.50497	0.963
6.54504	0.962
6.5851	0.95
6.62516	0.935
6.66522	0.933
6.70528	0.925
6.74534	0.867
6.78541	0.904
6.82547	0.924
6.86553	0.93
6.90559	0.92
6.94565	0.904
6.98571	0.876
7.02578	0.775
7.06584	0.841
7.1059	0.9
7.14596	0.945
7.18602	0.962
7.22608	0.965
7.26615	0.965
7.30621	0.957
7.34627	0.932
7.38633	0.932
7.42639	0.957
7.46646	0.971
7.50652	0.983
7.54658	0.983
7.58664	0.983
7.6267	0.978
7.66676	0.933
7.70683	0.943
7.74689	0.947
7.78695	0.867
7.82701	0.962
7.86707	0.978
7.90713	0.966
7.9472	0.96
7.98726	0.968
8.02732	0.981
8.06738	0.981
8.10744	0.965
8.1475	0.917
8.18757	0.937
8.22763	0.947
8.26769	0.915
8.30775	0.905
8.34781	0.942
8.38787	0.962
8.42794	0.971
8.468	0.978
8.50806	0.978
8.54812	0.966
8.58818	0.942
8.62824	0.836
8.66831	0.92
8.70837	0.95
8.74843	0.958
8.78849	0.947
8.82855	0.957
8.86862	0.899
8.90868	0.902
8.94874	0.943
8.9888	0.952
9.02886	0.958
9.06892	0.92
9.10899	0.863
9.14905	0.947
9.18911	0.962
9.22917	0.975
9.26923	0.98
9.30929	0.981
9.34936	0.985
9.38942	0.988
9.42948	0.983
9.46954	0.986
9.5096	0.97
9.54966	0.914
9.58973	0.907
9.62979	0.95
9.66985	0.957
9.70991	0.94
9.74997	0.932
9.79003	0.957
9.8301	0.965
9.87016	0.975
9.91022	0.98
9.95028	0.983
9.99034	0.986
10.0304	0.973
10.0705	0.919
10.1105	0.912
10.1506	0.965
10.1907	0.975
10.2307	0.983
10.2708	0.985
10.3108	0.985
10.3509	0.981
10.391	0.968
10.431	0.943
10.4711	0.914
10.5111	0.915
10.5512	0.957
10.5913	0.955
10.6313	0.91
10.6714	0.93
10.7115	0.965
10.7515	0.98
10.7916	0.988
10.8316	0.988
10.8717	0.991
10.9118	0.996
10.9518	0.995
10.9919	0.988
11.0319	0.991
11.072	0.991
11.1121	0.995
11.1521	0.991
11.1922	0.981
11.2323	0.917
11.2723	0.907
11.3124	0.957
11.3524	0.978
11.3925	0.988
11.4326	0.983
11.4726	0.981
11.5127	0.975
11.5527	0.965
11.5928	0.907
11.6329	0.698
11.6729	0.778
11.713	0.91
11.7531	0.952
11.7931	0.958
11.8332	0.963
11.8732	0.957
11.9133	0.925
11.9534	0.91
11.9934	0.924
12.0335	0.905
12.0736	0.872
12.1136	0.805
12.1537	0.481
12.1937	0.079
12.2338	0.204
12.2739	0.513
12.3139	0.714
12.354	0.801
12.394	0.797
12.4341	0.867
12.4742	0.909
12.5142	0.915
12.5543	0.905
12.5944	0.861
12.6344	0.676
12.6745	0.716
12.7145	0.836
12.7546	0.909
12.7947	0.933
12.8347	0.95
12.8748	0.957
12.9148	0.958
12.9549	0.958
12.995	0.953
13.035	0.93
13.0751	0.929
13.1152	0.933
13.1552	0.94
13.1953	0.945
13.2353	0.943
13.2754	0.938
13.3155	0.933
13.3555	0.919
13.3956	0.899
13.4357	0.856
13.4757	0.772
13.5158	0.643
13.5558	0.293
13.5959	0.118
13.636	0.151
13.676	0.297
13.7161	0.468
13.7561	0.618
13.7962	0.699
13.8363	0.726
13.8763	0.745
13.9164	0.754
13.9565	0.752
13.9965	0.759
14.0366	0.755
14.0766	0.699
14.1167	0.518
14.1568	0.49
14.1968	0.668
14.2369	0.813
14.2769	0.879
14.317	0.92
14.3571	0.945
14.3971	0.958
14.4372	0.966
14.4773	0.971
14.5173	0.976
14.5574	0.981
14.5974	0.985
14.6375	0.983
14.6776	0.986
14.7176	0.986
14.7577	0.983
14.7977	0.986
14.8378	0.986
14.8779	0.985
14.9179	0.976
14.958	0.963
14.9981	0.958
15.0381	0.943
15.0782	0.904
15.1182	0.909
15.1583	0.947
15.1984	0.962
15.2384	0.968
15.2785	0.97
15.3186	0.966
15.3586	0.966
15.3987	0.968
15.4387	0.962
15.4788	0.973
15.5189	0.971
15.5589	0.973
15.599	0.976
15.639	0.97
15.6791	0.976
15.7192	0.976
15.7592	0.975
15.7993	0.973
15.8394	0.97
15.8794	0.968
