Infrared Spectrum: 1-Methylphenanthrene
Formula: C 15 H 12
CAS: 832-69-9
State: gas
Instrument: HP-GC/MS/IRD
Origin: NIST Mass Spectrometry Data Center
1/CM	ABSORBANCE
550	9.3e-05
562	0.000417
574	0.000366
586	0.0009405
598	3.75e-05
610	7.2e-05
622	0.000126
634	0.0001995
646	0.000237
658	0.0004305
670	0.0002835
682	0.0002985
694	0.000381
706	0.0009195
718	0.0009675
730	0.004179
742	0.015
754	0.0087705
766	0.0016815
778	0.001077
790	0.0043875
802	0.00789
814	0.0062325
826	0.0025275
838	0.000654
850	0.000771
862	0.0012975
874	0.001623
886	0.0009825
898	0.0002865
910	0.000186
922	0.000255
934	0.000384
946	0.0004395
958	0.000402
970	0.000255
982	0.000357
994	0.0003555
1006	0.0002985
1018	0.000339
1030	0.0011655
1042	0.0005115
1054	0.0003
1066	0.0004365
1078	0.00081
1090	0.000585
1102	0.0001905
1114	0.0001425
1126	0.0003105
1138	0.000339
1150	0.000204
1162	0.000225
1174	0.000312
1186	0.0005475
1198	0.0006135
1210	0.000414
1222	0.0005865
1234	0.000786
1246	0.000819
1258	0.0004365
1270	0.0004335
1282	0.000456
1294	0.0007365
1306	0.0005025
1318	0.0002415
1330	0.00021
1342	0.000198
1354	0.0002985
1366	0.000369
1378	0.000828
1390	0.00087
1402	0.0004155
1414	0.0006495
1426	0.001029
1438	0.001671
1450	0.003129
1462	0.00384
1474	0.0021885
1486	0.0010065
1498	0.0011295
1510	0.0011085
1522	0.001245
1534	0.000825
1546	0.000513
1558	0.0004095
1570	0.0006195
1582	0.000894
1594	0.0014175
1606	0.0013965
1618	0.0005775
1630	0.000432
1642	0.000531
1654	0.000555
1666	0.000513
1678	0.0005415
1690	0.000528
1702	0.0003915
1714	0.0003645
1726	0.0002895
1738	0.000348
1750	0.0005805
1762	0.000762
1774	0.0007725
1786	0.0004125
1798	0.000321
1810	0.000363
1822	0.000405
1834	0.0003645
1846	0.000444
1858	0.0002775
1870	0.0001875
1882	0.000312
1894	0.0004545
1906	0.000765
1918	0.0008895
1930	0.000675
1942	0.000561
1954	0.000141
1966	5.4e-05
1978	7.05e-05
1990	6e-05
2002	4.5e-05
2014	3.6e-05
2026	4.5e-05
2038	4.65e-05
2050	3.45e-05
2062	4.5e-06
2074	1.5e-05
2086	1.8e-05
2098	3e-05
2110	4.2e-05
2122	4.2e-05
2134	4.8e-05
2146	3.75e-05
2158	1.2e-05
2170	2.1e-05
2182	1.5e-05
2194	1.35e-05
2206	2.85e-05
2218	3.3e-05
2230	1.8e-05
2242	2.7e-05
2254	3.3e-05
2266	3.6e-05
2278	1.5e-06
2290	5.1e-05
2302	4.2e-05
2314	7.05e-05
2326	0.0001125
2338	6e-05
2350	7.65e-05
2362	4.65e-05
2374	2.4e-05
2386	1.2e-05
2398	2.85e-05
2410	4.2e-05
2422	6.9e-05
2434	4.8e-05
2446	5.7e-05
2458	6.6e-05
2470	6.75e-05
2482	9.3e-05
2494	9.3e-05
2506	9e-05
2518	6.3e-05
2530	5.25e-05
2542	3.75e-05
2554	3.6e-05
2566	5.4e-05
2578	7.8e-05
2590	7.2e-05
2602	4.8e-05
2614	5.4e-05
2626	7.5e-05
2638	5.25e-05
2650	3.6e-05
2662	7.5e-05
2674	7.5e-05
2686	6e-05
2698	7.5e-05
2710	6.15e-05
2722	8.85e-05
2734	0.000156
2746	0.0002235
2758	0.000138
2770	0.000132
2782	0.0001155
2794	0.000111
2806	0.0001575
2818	0.0002385
2830	0.000273
2842	0.0003945
2854	0.0005835
2866	0.001008
2878	0.0015435
2890	0.0014265
2902	0.0014415
2914	0.001737
2926	0.002475
2938	0.00315
2950	0.002748
2962	0.002586
2974	0.0026925
2986	0.002496
2998	0.0017655
3010	0.0019545
3022	0.0033825
3034	0.0050745
3046	0.006465
3058	0.008451
3070	0.008298
3082	0.006309
3094	0.004383
3106	0.0025305
3118	0.0012585
3130	0.00066
3142	0.0004275
3154	0.0002895
3166	0.0002595
3178	0.00021
3190	0.000216
3202	0.0001815
3214	0.0001035
3226	8.4e-05
3238	8.55e-05
3250	6.9e-05
3262	7.65e-05
3274	7.05e-05
3286	6.45e-05
3298	9.15e-05
3310	3.9e-05
3322	4.5e-05
3334	6e-05
3346	6.75e-05
3358	7.8e-05
3370	4.8e-05
3382	4.95e-05
3394	6.9e-05
3406	4.5e-05
3418	5.4e-05
3430	5.4e-05
3442	8.4e-05
3454	0.000102
3466	4.65e-05
3478	3.6e-05
3490	4.65e-05
3502	4.5e-05
3514	7.35e-05
3526	6.75e-05
3538	8.4e-05
3550	6.45e-05
3562	0.0001005
3574	7.65e-05
3586	7.5e-05
3598	7.95e-05
3610	7.8e-05
3622	0.0001065
3634	0.0001035
3646	7.05e-05
3658	9.3e-05
3670	6.15e-05
3682	0.000105
3694	8.85e-05
3706	7.65e-05
3718	0.0001035
3730	0.000111
3742	7.2e-05
3754	0.0001155
3766	9.6e-05
3778	0.000129
3790	0.0001305
3802	0.0001365
3814	8.4e-05
3826	0.0001005
3838	0.0001185
