Infrared Spectrum: ETHYLAMINE, 3,4,5-TRIMETHOXYPHEN-, HYDROCHLORIDE
Formula: C11 H18 Cl N O3
CAS: 832-92-8
State: SOLID (KCl DISC) VS KCl
Melting point: 181 C
Class: COBLENTZ III
Instrument: PERKIN-ELMER 21 (GRATING)
Instrument parameters: FILTER AT ABOUT 10 MICRONS
Sampling: TRANSMISSION
Resolution: 2
1/CM	TRANSMITTANCE
3968.25	0.5962
3959.34	0.5972
3950.43	0.5983
3941.52	0.6005
3932.6	0.603
3923.69	0.6054
3914.78	0.6079
3905.87	0.6099
3896.96	0.6115
3888.05	0.6121
3879.14	0.6125
3870.23	0.6129
3861.31	0.6132
3852.4	0.614
3843.49	0.6151
3834.58	0.616
3825.67	0.6172
3816.76	0.6183
3807.85	0.6196
3798.94	0.621
3790.02	0.6224
3781.11	0.6237
3772.2	0.625
3763.29	0.626
3754.38	0.6272
3745.47	0.6284
3736.56	0.6295
3727.65	0.6306
3718.73	0.6316
3709.82	0.6325
3700.91	0.6335
3692	0.6346
3683.09	0.6356
3674.18	0.6365
3665.27	0.6374
3656.36	0.6382
3647.44	0.6391
3638.53	0.6396
3629.62	0.6397
3620.71	0.6389
3611.8	0.6377
3602.89	0.636
3593.98	0.6342
3585.07	0.6322
3576.15	0.6303
3567.24	0.6282
3558.33	0.6248
3549.42	0.6214
3540.51	0.6187
3531.6	0.6165
3522.69	0.6141
3513.78	0.6119
3504.86	0.6096
3495.95	0.6073
3487.04	0.6048
3478.13	0.6021
3469.22	0.5995
3460.31	0.5967
3451.4	0.5939
3442.49	0.5907
3433.57	0.5872
3424.66	0.5846
3415.75	0.5845
3406.84	0.5844
3397.93	0.5844
3389.02	0.5854
3380.11	0.5916
3371.2	0.5993
3362.28	0.6067
3353.37	0.614
3344.46	0.6219
3335.55	0.6285
3326.64	0.6346
3317.73	0.6404
3308.82	0.6454
3299.91	0.6502
3290.99	0.6541
3282.08	0.6561
3273.17	0.6571
3264.26	0.6549
3255.35	0.6504
3246.44	0.6468
3237.53	0.6451
3228.62	0.6453
3219.7	0.6461
3210.79	0.6471
3201.88	0.6481
3192.97	0.6485
3184.06	0.6453
3175.15	0.6358
3166.24	0.6233
3157.33	0.6101
3148.41	0.5956
3139.5	0.5754
3130.59	0.5595
3121.68	0.5327
3112.77	0.495
3103.86	0.469
3094.95	0.4471
3086.04	0.4267
3077.12	0.4058
3068.21	0.3836
3059.3	0.3477
3050.39	0.3327
3041.48	0.3135
3032.57	0.2909
3023.66	0.2708
3014.75	0.2532
3005.83	0.2268
2996.92	0.2138
2988.01	0.202
2979.1	0.1899
2970.19	0.1798
2961.28	0.1723
2952.37	0.1679
2943.46	0.1636
2934.54	0.1591
2925.63	0.1547
2916.72	0.1526
2907.81	0.1513
2898.9	0.1506
2889.99	0.1499
2881.08	0.1492
2872.17	0.1485
2863.25	0.148
2854.34	0.1483
2845.43	0.149
2836.52	0.1508
2827.61	0.1565
2818.7	0.1649
2809.79	0.1784
2800.88	0.2023
2791.96	0.2233
2783.05	0.2431
2774.14	0.2757
2765.23	0.2957
2756.32	0.3042
2747.41	0.3123
2738.5	0.3223
2729.59	0.3332
2720.67	0.3445
2711.76	0.3555
2702.85	0.3672
2693.94	0.3812
2685.03	0.3979
2676.12	0.4096
2667.21	0.4104
2658.3	0.4117
2649.38	0.4152
2640.47	0.4242
2631.56	0.4356
2622.65	0.4477
2613.74	0.4598
2604.83	0.4704
2595.92	0.4772
2587.01	0.48
2578.09	0.4808
2569.18	0.4812
2560.27	0.4822
2551.36	0.4849
2542.45	0.4905
2533.54	0.5039
2524.63	0.5236
2515.72	0.5474
2506.8	0.5522
2497.89	0.5455
2488.98	0.5342
2480.07	0.5306
2471.16	0.5307
2462.25	0.5329
2453.34	0.5387
2444.43	0.5486
2435.51	0.5611
2426.6	0.5775
2417.69	0.5915
2408.78	0.6016
2399.87	0.6081
2390.96	0.6116
2382.05	0.6138
2373.14	0.6159
2364.22	0.6182
2355.31	0.6206
2346.4	0.6234
2337.49	0.6261
2328.58	0.6302
2319.67	0.6367
2310.76	0.6453
2301.85	0.6546
2292.93	0.6572
2284.02	0.6579
2275.11	0.6592
2266.2	0.662
2257.29	0.6668
2248.38	0.673
2239.47	0.6747
2230.56	0.6759
2221.64	0.6795
2212.73	0.684
2203.82	0.6888
2194.91	0.692
2186	0.695
2177.09	0.6977
2168.18	0.6982
2159.27	0.6994
2150.35	0.7033
2141.44	0.7073
2132.53	0.7097
2123.62	0.7098
2114.71	0.7069
2105.8	0.6976
2096.89	0.6797
2087.98	0.6592
2079.06	0.6341
2070.15	0.6115
2061.24	0.5982
2052.33	0.6019
2043.42	0.6234
2034.51	0.6446
2025.6	0.659
2016.69	0.673
2007.77	0.6869
1998.86	0.6983
1989.95	0.7031
1981.04	0.709
1972.13	0.7166
1963.22	0.7201
1954.31	0.7182
1945.4	0.7218
1936.48	0.7254
1927.57	0.7281
1918.66	0.7334
1909.75	0.7421
1900.84	0.7518
1891.93	0.7606
1883.02	0.7606
1874.11	0.7588
1865.19	0.7588
1856.28	0.7594
1847.37	0.7623
1838.46	0.7657
1829.55	0.7754
1820.64	0.7805
1811.73	0.7808
1802.82	0.7816
1793.9	0.7867
1784.99	0.7892
1776.08	0.7923
1767.17	0.7942
1758.26	0.7937
1749.35	0.7902
1740.44	0.7891
1731.53	0.7882
1722.61	0.7973
1713.7	0.8027
1704.79	0.8032
1695.88	0.8027
1686.97	0.7946
1678.06	0.7853
1669.15	0.7818
1660.24	0.779
1651.32	0.7683
1642.41	0.7465
1633.5	0.6811
1624.59	0.5479
1615.68	0.2815
1606.77	0.2597
1597.86	0.1236
1588.95	0.3022
1580.03	0.5042
1571.12	0.6269
1562.21	0.6612
1553.3	0.6879
1544.39	0.6483
1535.48	0.2861
1526.57	0.2793
1517.66	0.2502
1508.74	0.3698
1499.83	0.5468
1490.92	0.6098
1482.01	0.4743
1473.1	0.2409
1464.19	0.2303
1455.28	0.3984
1446.37	0.3994
1437.45	0.3794
1428.54	0.1862
1419.63	0.4052
1410.72	0.5241
1401.81	0.6107
1392.9	0.6426
1383.99	0.6495
1375.08	0.6848
1366.16	0.6976
1357.25	0.6747
1348.34	0.3995
1339.43	0.3431
1330.52	0.5106
1321.61	0.5782
1312.7	0.5707
1303.79	0.4975
1294.87	0.6719
1285.96	0.7311
1277.05	0.7451
1268.14	0.6615
1259.23	0.6323
1250.32	0.1123
1241.41	0.1425
1232.5	0.3104
1223.58	0.4998
1214.67	0.5957
1205.76	0.6437
1196.85	0.6155
1187.94	0.5186
1179.03	0.6852
1170.12	0.7229
1161.21	0.6245
1152.29	0.466
1143.38	0.379
1134.47	0.0359
1125.56	0.0224
1116.65	0.1737
1107.74	0.3256
1098.83	0.4569
1089.92	0.3941
1081	0.4786
1072.09	0.5612
1063.18	0.6047
1054.27	0.6302
1045.36	0.6496
1036.45	0.6497
1027.54	0.6643
1018.63	0.4813
1009.71	0.6068
1000.8	0.4155
991.891	0.278
982.98	0.5158
974.069	0.5195
965.158	0.5975
956.246	0.596
947.335	0.6577
938.424	0.6701
929.512	0.6884
920.601	0.713
911.69	0.6889
902.779	0.7097
893.867	0.7269
884.956	0.7386
876.045	0.7464
867.134	0.7583
858.222	0.7701
849.311	0.7665
840.4	0.6468
831.489	0.3114
822.577	0.601
813.666	0.6934
804.755	0.7369
795.844	0.7539
786.932	0.6757
778.021	0.6379
769.11	0.675
760.199	0.7417
751.287	0.7347
742.376	0.7524
733.465	0.7746
724.554	0.7826
715.642	0.7876
706.731	0.7856
697.82	0.7892
688.909	0.7952
679.997	0.7855
671.086	0.4514
