Infrared Spectrum: 2-Phenylbenzoxazole
Formula: C 13 H 9 N O
CAS: 833-50-1
State: gas
Origin: EPA-IR VAPOR PHASE LIBRARY
1/CM	ABSORBANCE
549.8	0.001548
559.445	0.002128
569.09	0.0007271
578.734	0.0004602
588.379	0.0006811
598.024	0.0009639
607.669	0.001378
617.313	0.003888
626.958	0.004198
636.603	0.001818
646.248	0.002228
655.893	0.004198
665.537	0.008438
675.182	0.020818
684.827	0.041518
694.472	0.047248
704.116	0.043258
713.761	0.026318
723.406	0.027118
733.051	0.091068
742.695	0.167728
752.34	0.087608
761.985	0.030948
771.63	0.016028
781.275	0.010858
790.919	0.011848
800.564	0.028368
810.209	0.044698
819.854	0.009328
829.498	0.007148
839.143	0.008578
848.788	0.006958
858.433	0.003318
868.078	0.002198
877.722	0.003768
887.367	0.006018
897.012	0.006248
906.657	0.008248
916.301	0.017988
925.946	0.019348
935.591	0.008308
945.236	0.003208
954.88	0.003418
964.525	0.003068
974.17	0.003178
983.815	0.005218
993.46	0.012038
1003.1	0.016868
1012.75	0.021468
1022.39	0.059998
1032.04	0.033028
1041.68	0.024528
1051.33	0.065848
1060.97	0.038648
1070.62	0.016458
1080.26	0.004668
1089.91	0.004028
1099.55	0.007398
1109.2	0.008278
1118.84	0.004058
1128.49	0.001708
1138.13	0.003548
1147.78	0.006648
1157.42	0.004608
1167.07	0.012498
1176.71	0.026028
1186.36	0.021078
1196	0.032678
1205.64	0.017968
1215.29	0.010458
1224.93	0.026028
1234.58	0.100778
1244.22	0.147068
1253.87	0.043778
1263.51	0.012568
1273.16	0.014118
1282.8	0.017138
1292.45	0.015128
1302.09	0.009578
1311.74	0.009068
1321.38	0.010208
1331.03	0.013248
1340.67	0.017128
1350.32	0.014358
1359.96	0.009228
1369.61	0.006018
1379.25	0.005718
1388.9	0.004158
1398.54	0.004478
1408.18	0.006898
1417.83	0.011158
1427.47	0.010428
1437.12	0.020948
1446.76	0.090008
1456.41	0.080078
1466.05	0.024848
1475.7	0.033318
1485.34	0.046468
1494.99	0.038698
1504.63	0.010958
1514.28	0.004658
1523.92	0.004928
1533.57	0.008818
1543.21	0.026558
1552.86	0.068758
1562.5	0.051918
1572.15	0.019298
1581.79	0.017588
1591.44	0.015108
1601.08	0.013478
1610.73	0.021458
1620.37	0.028758
1630.01	0.017818
1639.66	0.005558
1649.3	0.002618
1658.95	0.004058
1668.59	0.004778
1678.24	0.002648
1687.88	0.003028
1697.53	0.003508
1707.17	0.002108
1716.82	0.001498
1726.46	0.001788
1736.11	0.001548
1745.75	0.002148
1755.4	0.004018
1765.04	0.005908
1774.69	0.004938
1784.33	0.002678
1793.98	0.002568
1803.62	0.005978
1813.27	0.005328
1822.91	0.002408
1832.55	0.002858
1842.2	0.004398
1851.84	0.003918
1861.49	0.002308
1871.13	0.002878
1880.78	0.005048
1890.42	0.006198
1900.07	0.005728
1909.71	0.003958
1919.36	0.004148
1929	0.006288
1938.65	0.003398
1948.29	0.003798
1957.94	0.004328
1967.58	0.003738
1977.23	0.001608
1986.87	0.0009787
1996.52	0.0008749
2006.16	0.0007891
2015.81	0.0006
2025.45	0.0005569
2035.1	0.000624
2044.74	0.0005877
2054.38	0.0006376
2064.03	0.0007325
2073.67	0.0008797
2083.32	0.0010487
2092.96	0.0011301
2102.61	0.0008758
2112.25	0.0008919
2121.9	0.0007679
2131.54	0.0006616
2141.19	0.0007761
2150.83	0.0007865
2160.48	0.0009979
2170.12	0.001137
2179.77	0.0010383
2189.41	0.0007408
2199.06	0.0006787
2208.7	0.0007256
2218.35	0.0007336
2227.99	0.0006933
2237.64	0.0008288
2247.28	0.001348
2256.92	0.001298
2266.57	0.000959
2276.21	0.0009333
2285.86	0.0011425
2295.5	0.0011389
2305.15	0.0010265
2314.79	0.001368
2324.44	0.001618
2334.08	0.001408
2343.73	0.001388
2353.37	0.001208
2363.02	0.001248
2372.66	0.001168
2382.31	0.001238
2391.95	0.001278
2401.6	0.0009832
2411.24	0.0008376
2420.89	0.0007227
2430.53	0.0007078
2440.18	0.000737
2449.82	0.0008848
2459.47	0.0010691
2469.11	0.001198
2478.75	0.001508
2488.4	0.001438
2498.04	0.001658
2507.69	0.001458
2517.33	0.0010393
2526.98	0.0008752
2536.62	0.0008852
2546.27	0.0007888
2555.91	0.0008153
2565.56	0.0010097
2575.2	0.001238
2584.85	0.001348
2594.49	0.001508
2604.14	0.001598
2613.78	0.001718
2623.43	0.001888
2633.07	0.001868
2642.72	0.001608
2652.36	0.001458
2662.01	0.001168
2671.65	0.001278
2681.29	0.0009302
2690.94	0.001109
2700.58	0.0009363
2710.23	0.0006684
2719.87	0.0007638
2729.52	0.0007648
2739.16	0.0007481
2748.81	0.0008723
2758.45	0.0011393
2768.1	0.001318
2777.74	0.001097
2787.39	0.001198
2797.03	0.001308
2806.68	0.001198
2816.32	0.0009665
2825.97	0.0008715
2835.61	0.0007269
2845.26	0.0007164
2854.9	0.0009208
2864.55	0.0008619
2874.19	0.0011251
2883.84	0.001368
2893.48	0.001918
2903.12	0.002018
2912.77	0.001488
2922.41	0.001538
2932.06	0.001678
2941.7	0.001998
2951.35	0.002008
2960.99	0.001828
2970.64	0.001718
2980.28	0.001628
2989.93	0.001968
2999.57	0.002588
3009.22	0.003228
3018.86	0.004768
3028.51	0.009038
3038.15	0.016038
3047.8	0.023168
3057.44	0.032628
3067.09	0.048298
3076.73	0.055298
3086.38	0.041788
3096.02	0.028138
3105.67	0.014028
3115.31	0.006818
3124.95	0.003698
3134.6	0.002628
3144.24	0.002258
3153.89	0.001938
3163.53	0.001808
3173.18	0.001348
3182.82	0.0010115
3192.47	0.0008054
3202.11	0.0005871
3211.76	0.0005668
3221.4	0.0005519
3231.05	0.0004252
3240.69	0.00022896
3250.34	0.0002997
3259.98	0.0003218
3269.63	0.00017874
3279.27	0.0003098
3288.92	0.0001131
3298.56	0.00015609
3308.21	0.0002917
3317.85	0.00015255
3327.49	0.00017458
3337.14	0.0003385
3346.78	0.00021253
3356.43	0.00018867
3366.07	0.0003193
3375.72	0.0003071
3385.36	0.00023853
3395.01	0.0003039
3404.65	0.000164608
3414.3	0.00023312
3423.94	0.00015315
3433.59	0.0002732
3443.23	0.00025707
3452.88	0.0003339
3462.52	0.0001416
3472.17	0.00020808
3481.81	0.0002903
3491.46	0.0004062
3501.1	0.00018477
3510.75	0.000158757
3520.39	0.0001211
3530.04	0.00023811
3539.68	0.0001187
3549.32	7.13e-05
3558.97	0.00019119
3568.61	0.0002707
3578.26	0.0003317
3587.9	0.00034
3597.55	0.0003657
3607.19	0.0004081
3616.84	0.000486
3626.48	0.0005828
3636.13	0.000451
3645.77	0.0006206
3655.42	0.0005787
3665.06	0.0005
3674.71	0.0005658
3684.35	0.0003964
3694	0.0003948
3703.64	0.0004233
3713.29	0.0005898
3722.93	0.0005394
3732.58	0.0004714
3742.22	0.0004518
3751.86	0.0005899
3761.51	0.0004064
3771.15	0.0004013
3780.8	0.0002262
3790.44	0.0003061
3800.09	0.0005419
3809.73	0.00025222
3819.38	0.0002897
3829.02	0.00027
3838.67	0.00024235
3848.31	0.00022873
3857.96	0.00020601
3867.6	0.0003522
3877.25	0.0004232
3886.89	0.0002933
3896.54	0.0005169
3906.18	0.00024687
3915.83	0.0004751
3925.47	0.0008467
3935.12	0.000808
3944.76	0.0008717
3954.41	0.0010208
3964.05	0.0009308
3973.69	0.0008596
3983.34	0.0006731
3992.98	0.0006192
