Infrared Spectrum: 2,2,2-TRICHLORO-N,N'-BIS(p-BROMOPHENYL) ETHYLIDENE DIAMINE
Formula: C14 H11 Br2 Cl3 N2
CAS: 83320-61-0
State: SOLID (MINERAL OIL MULL)
Class: COBLENTZ
Instrument: Not specified, most likely a prism, grating, or hybrid spectrometer.
Sampling: TRANSMISSION
Resolution: 4
Origin: DOW CHEMICAL COMPANY
MICROMETERS	TRANSMITTANCE
2.034	0.477
2.07496	0.488
2.11591	0.5
2.15687	0.515
2.19783	0.522
2.23878	0.523
2.27974	0.523
2.3207	0.539
2.36165	0.551
2.40261	0.563
2.44357	0.575
2.48452	0.592
2.52548	0.606
2.56644	0.616
2.60739	0.623
2.64835	0.633
2.68931	0.645
2.73027	0.647
2.77122	0.652
2.81218	0.655
2.85314	0.652
2.89409	0.575
2.93505	0.506
2.97601	0.642
3.01696	0.645
3.05792	0.655
3.09888	0.66
3.13983	0.66
3.18079	0.662
3.22175	0.647
3.2627	0.614
3.30366	0.573
3.34462	0.323
3.38557	0.02
3.42653	0.053
3.46749	0.099
3.50844	0.421
3.5494	0.645
3.59036	0.722
3.63131	0.734
3.67227	0.732
3.71323	0.755
3.75418	0.76
3.79514	0.755
3.8361	0.743
3.87706	0.768
3.91801	0.785
3.95897	0.813
3.99993	0.827
4.04088	0.83
4.08184	0.84
4.1228	0.844
4.16375	0.847
4.20471	0.849
4.24567	0.852
4.28662	0.861
4.32758	0.864
4.36854	0.869
4.40949	0.873
4.45045	0.875
4.49141	0.885
4.53236	0.883
4.57332	0.885
4.61428	0.886
4.65523	0.89
4.69619	0.895
4.73715	0.897
4.7781	0.9
4.81906	0.902
4.86002	0.902
4.90097	0.91
4.94193	0.909
4.98289	0.914
5.02384	0.914
5.0648	0.914
5.10576	0.917
5.14672	0.921
5.18767	0.921
5.22863	0.924
5.26959	0.924
5.31054	0.909
5.3515	0.856
5.39246	0.902
5.43341	0.934
5.47437	0.94
5.51533	0.938
5.55628	0.941
5.59724	0.936
5.6382	0.94
5.67915	0.933
5.72011	0.921
5.76107	0.919
5.80202	0.931
5.84298	0.936
5.88394	0.917
5.92489	0.912
5.96585	0.898
6.00681	0.886
6.04776	0.868
6.08872	0.827
6.12968	0.816
6.17063	0.727
6.21159	0.522
6.25255	0.238
6.2935	0.493
6.33446	0.756
6.37542	0.821
6.41638	0.832
6.45733	0.821
6.49829	0.767
6.53925	0.666
6.5802	0.318
6.62116	0.087
6.66212	0.046
6.70307	0.083
6.74403	0.19
6.78499	0.282
6.82594	0.246
6.8669	0.375
6.90786	0.501
6.94881	0.636
6.98977	0.722
7.03073	0.753
7.07168	0.748
7.11264	0.626
7.1536	0.541
7.19455	0.577
7.23551	0.489
7.27647	0.582
7.31742	0.688
7.35838	0.744
7.39934	0.734
7.44029	0.672
7.48125	0.594
7.52221	0.577
7.56317	0.347
7.60412	0.212
7.64508	0.327
7.68604	0.335
7.72699	0.212
7.76795	0.441
7.80891	0.607
7.84986	0.726
7.89082	0.731
7.93178	0.707
7.97273	0.577
8.01369	0.327
8.05465	0.321
8.0956	0.568
8.13656	0.743
8.17752	0.801
8.21847	0.832
8.25943	0.835
8.30039	0.84
8.34134	0.792
8.3823	0.666
8.42326	0.551
8.46421	0.654
8.50517	0.77
8.54613	0.78
8.58708	0.755
8.62804	0.683
8.669	0.556
8.70995	0.381
8.75091	0.445
8.79187	0.589
8.83283	0.648
8.87378	0.736
8.91474	0.801
8.9557	0.792
8.99665	0.744
9.03761	0.732
9.07857	0.751
9.11952	0.779
9.16048	0.809
9.20144	0.835
9.24239	0.784
9.28335	0.559
9.32431	0.398
9.36526	0.628
9.40622	0.832
9.44718	0.851
9.48813	0.869
9.52909	0.88
9.57005	0.881
9.611	0.886
9.65196	0.886
9.69292	0.886
9.73387	0.886
9.77483	0.883
9.81579	0.861
9.85674	0.825
9.8977	0.789
9.93866	0.686
9.97961	0.517
10.0206	0.575
10.0615	0.796
10.1025	0.845
10.1434	0.873
10.1844	0.886
10.2254	0.895
10.2663	0.902
10.3073	0.905
10.3482	0.905
10.3892	0.909
10.4301	0.914
10.4711	0.914
10.5121	0.914
10.553	0.902
10.594	0.902
10.6349	0.878
10.6759	0.914
10.7168	0.921
10.7578	0.905
10.7988	0.897
10.8397	0.917
10.8807	0.926
10.9216	0.929
10.9626	0.933
11.0035	0.933
11.0445	0.916
11.0854	0.902
11.1264	0.88
11.1674	0.839
11.2083	0.763
11.2493	0.654
11.2902	0.549
11.3312	0.623
11.3721	0.768
11.4131	0.835
11.4541	0.851
11.495	0.842
11.536	0.816
11.5769	0.799
11.6179	0.827
11.6588	0.852
11.6998	0.873
11.7408	0.883
11.7817	0.885
11.8227	0.88
11.8636	0.873
11.9046	0.868
11.9455	0.849
11.9865	0.83
12.0275	0.806
12.0684	0.743
12.1094	0.578
12.1503	0.349
12.1913	0.373
12.2322	0.333
12.2732	0.136
12.3142	0.109
12.3551	0.126
12.3961	0.172
12.437	0.306
12.478	0.332
12.5189	0.333
12.5599	0.325
12.6008	0.433
12.6418	0.525
12.6828	0.527
12.7237	0.366
12.7647	0.253
12.8056	0.265
12.8466	0.419
12.8875	0.537
12.9285	0.621
12.9695	0.688
13.0104	0.722
13.0514	0.748
13.0923	0.763
13.1333	0.777
13.1742	0.791
13.2152	0.799
13.2562	0.803
13.2971	0.804
13.3381	0.806
13.379	0.809
13.42	0.813
13.4609	0.809
13.5019	0.804
13.5429	0.799
13.5838	0.796
13.6248	0.794
13.6657	0.789
13.7067	0.782
13.7476	0.772
13.7886	0.763
13.8296	0.756
13.8705	0.755
13.9115	0.758
13.9524	0.77
13.9934	0.772
14.0343	0.775
14.0753	0.775
14.1162	0.773
14.1572	0.765
14.1982	0.75
14.2391	0.727
14.2801	0.695
14.321	0.664
14.362	0.647
14.4029	0.652
14.4439	0.678
14.4849	0.684
14.5258	0.683
14.5668	0.662
14.6077	0.621
14.6487	0.578
14.6896	0.539
14.7306	0.505
14.7716	0.476
14.8125	0.44
14.8535	0.397
14.8944	0.354
14.9354	0.333
14.9763	0.349
15.0173	0.397
15.0583	0.433
15.0992	0.457
15.1402	0.481
15.1811	0.498
15.2221	0.511
15.263	0.52
15.304	0.525
15.345	0.525
15.3859	0.525
15.4269	0.525
15.4678	0.523
15.5088	0.522
15.5497	0.52
15.5907	0.513
15.6317	0.506
15.6726	0.5
15.7136	0.494
15.7545	0.489
15.7955	0.482
15.8364	0.476
15.8774	0.47
15.9183	0.472
