Infrared Spectrum: Acetanilide, 4'-amino-2',6'-dichloro-
Formula: C8 H8 Cl2 N2 O
CAS: 83386-07-6
State: SOLID (SPLIT MULL), FLUOROLUBE FOR 3800-1330 CM^-^1, NUJOL FOR 1330-460 CM^-^1
Melting point: 219 C
Class: COBLENTZ III
Instrument: DOW KBr FOREPRISM-GRATING
Instrument parameters: BLAZED AT 3.5, 12.0, 20.0 MICRON AND CHANGED AT 5.0, 7.5, 14.9 MICRON
Sampling: TRANSMISSION
Resolution: 2
Origin: DOW CHEMICAL COMPANY
1/CM	TRANSMITTANCE
456	0.7045
465	0.7019
474	0.6958
483	0.6864
492	0.6775
501	0.6647
510	0.4519
519	0.7125
528	0.7025
537	0.6455
546	0.6678
555	0.6678
564	0.6851
573	0.6868
582	0.6304
591	0.5649
600	0.5224
609	0.5438
618	0.4628
627	0.5095
636	0.4299
645	0.6138
654	0.5858
663	0.5389
672	0.498
681	0.4775
690	0.4762
699	0.5375
708	0.5001
717	0.4446
726	0.4462
735	0.5128
744	0.5699
753	0.6245
762	0.6618
771	0.6995
780	0.7221
789	0.7219
798	0.6447
807	0.0789
816	0.7251
825	0.7445
834	0.5958
843	0.3872
852	0.3453
861	0.5166
870	0.7421
879	0.7858
888	0.7856
897	0.7942
906	0.7943
915	0.7867
924	0.7753
933	0.7605
942	0.7304
951	0.5486
960	0.7569
969	0.6503
978	0.7437
987	0.7431
996	0.7107
1005	0.6089
1014	0.5127
1023	0.7089
1032	0.6932
1041	0.6362
1050	0.6917
1059	0.6642
1068	0.5687
1077	0.4485
1086	0.7597
1095	0.7808
1104	0.7758
1113	0.7671
1122	0.7555
1131	0.7425
1140	0.7314
1149	0.7204
1158	0.7108
1167	0.7015
1176	0.6882
1185	0.6788
1194	0.496
1203	0.6419
1212	0.6395
1221	0.6182
1230	0.5848
1239	0.5782
1248	0.5362
1257	0.4756
1266	0.3606
1275	0.2066
1284	0.2761
1293	0.3541
1302	0.5598
1311	0.5833
1320	0.6059
1329	0.5423
1338	0.4166
1347	0.4077
1356	0.4304
1365	0.3737
1374	0.4195
1383	0.4957
1392	0.4881
1401	0.4695
1410	0.4432
1419	0.3724
1428	0.3578
1437	0.4565
1446	0.4523
1455	0.4321
1464	0.3982
1473	0.3277
1482	0.2374
1491	0.279
1500	0.2656
1509	0.1904
1518	0.1432
1527	0.2185
1536	0.5285
1545	0.5864
1554	0.4789
1563	0.4567
1572	0.5782
1581	0.4762
1590	0.3348
1599	0.2126
1608	0.3537
1617	0.2798
1626	0.4922
1635	0.4547
1644	0.3532
1653	0.2595
1662	0.126
1671	0.179
1680	0.4664
1689	0.7068
1698	0.8531
1707	0.8628
1716	0.8513
1725	0.853
1734	0.8486
1743	0.8331
1752	0.8216
1761	0.8081
1770	0.7975
1779	0.7895
1788	0.7825
1797	0.7796
1806	0.7768
1815	0.7737
1824	0.7693
1833	0.7644
1842	0.7592
1851	0.7547
1860	0.7503
1869	0.7458
1878	0.7414
1887	0.7369
1896	0.7325
1905	0.7293
1914	0.726
1923	0.7217
1932	0.7175
1941	0.7143
1950	0.7111
1959	0.7081
1968	0.705
1977	0.7021
1986	0.6993
1995	0.6956
2004	0.6911
2013	0.6872
2022	0.6818
2031	0.6775
2040	0.6735
2049	0.6696
2058	0.6657
2067	0.6618
2076	0.6582
2085	0.6549
2094	0.6515
2103	0.6483
2112	0.6447
2121	0.6408
2130	0.6371
2139	0.6333
2148	0.6295
2157	0.6258
2166	0.6223
2175	0.6187
2184	0.6147
2193	0.6108
2202	0.6077
2211	0.6038
2220	0.5972
2229	0.5895
2238	0.5835
2247	0.5783
2256	0.5737
2265	0.5693
2274	0.5649
2283	0.5612
2292	0.558
2301	0.5535
2310	0.5486
2319	0.5465
2328	0.5466
2337	0.5468
2346	0.5476
2355	0.5482
2364	0.5488
2373	0.549
2382	0.5491
2391	0.5489
2400	0.5481
2409	0.5473
2418	0.5469
2427	0.5462
2436	0.5451
2445	0.5439
2454	0.5429
2463	0.5419
2472	0.5409
2481	0.54
2490	0.5397
2499	0.5394
2508	0.5373
2517	0.5351
2526	0.533
2535	0.5309
2544	0.5289
2553	0.527
2562	0.5252
2571	0.5234
2580	0.5216
2589	0.5197
2598	0.5179
2607	0.5157
2616	0.5133
2625	0.5108
2634	0.5083
2643	0.5059
2652	0.5034
2661	0.5002
2670	0.497
2679	0.4938
2688	0.4907
2697	0.4878
2706	0.4849
2715	0.4819
2724	0.479
2733	0.4758
2742	0.4721
2751	0.4683
2760	0.4643
2769	0.4603
2778	0.4568
2787	0.4577
2796	0.4623
2805	0.4647
2814	0.4641
2823	0.4616
2832	0.4594
2841	0.4574
2850	0.4555
2859	0.4528
2868	0.4501
2877	0.447
2886	0.4436
2895	0.4402
2904	0.4367
2913	0.4332
2922	0.4296
2931	0.4252
2940	0.4208
2949	0.4156
2958	0.4103
2967	0.405
2976	0.4002
2985	0.3954
2994	0.3905
3003	0.3848
3012	0.3806
3021	0.3832
3030	0.39
3039	0.3903
3048	0.3871
3057	0.383
3066	0.3793
3075	0.3768
3084	0.3755
3093	0.3722
3102	0.3644
3111	0.3564
3120	0.3464
3129	0.3354
3138	0.3244
3147	0.3131
3156	0.3003
3165	0.2864
3174	0.2714
3183	0.2533
3192	0.2328
3201	0.2091
3210	0.1904
3219	0.2016
3228	0.2389
3237	0.2308
3246	0.2074
3255	0.1776
3264	0.1665
3273	0.2121
3282	0.2767
3291	0.3037
3300	0.3131
3309	0.3173
3318	0.3225
3327	0.3288
3336	0.3106
3345	0.2929
3354	0.4465
3363	0.4605
3372	0.4465
3381	0.4253
3390	0.3893
3399	0.3387
3408	0.2679
3417	0.3368
3426	0.454
3435	0.4941
3444	0.4926
3453	0.4859
3462	0.4783
3471	0.4712
3480	0.4653
3489	0.4605
3498	0.4558
3507	0.4519
3516	0.448
3525	0.4441
3534	0.4407
3543	0.4378
3552	0.4348
3561	0.432
3570	0.4297
3579	0.4273
3588	0.425
3597	0.4227
3606	0.4201
3615	0.4175
3624	0.4148
3633	0.4121
3642	0.4097
3651	0.4077
3660	0.4057
3669	0.4037
3678	0.4018
3687	0.4003
3696	0.3989
3705	0.3973
3714	0.3959
3723	0.3945
3732	0.3934
3741	0.3923
3750	0.3912
3759	0.3896
3768	0.3871
3777	0.3866
3786	0.3855
3795	0.3848
