Infrared Spectrum: BIGUANIDE, 1-PHENETHYL-, HYDROCHLORIDE
Formula: C10 H16 Cl N5
CAS: 834-28-6
State: SOLID (KCl DISC) VS KCl
Melting point: 175-178 C
Class: COBLENTZ III
Instrument: PERKIN-ELMER 21 (GRATING)
Instrument parameters: FILTER AT ABOUT 10 MICRONS
Sampling: TRANSMISSION
Resolution: 2
1/CM	TRANSMITTANCE
4000	0.813
3991	0.8136
3982	0.8143
3973	0.8151
3964	0.8157
3955	0.8165
3946	0.8171
3937	0.8179
3928	0.8187
3919	0.8194
3910	0.8202
3901	0.8213
3892	0.8225
3883	0.8237
3874	0.825
3865	0.8263
3856	0.8276
3847	0.8289
3838	0.8302
3829	0.8314
3820	0.8327
3811	0.8338
3802	0.835
3793	0.8361
3784	0.8373
3775	0.8383
3766	0.8395
3757	0.8406
3748	0.842
3739	0.8436
3730	0.8453
3721	0.8471
3712	0.8488
3703	0.8507
3694	0.8525
3685	0.8544
3676	0.8567
3667	0.8596
3658	0.8623
3649	0.865
3640	0.8676
3631	0.8704
3622	0.873
3613	0.8756
3604	0.8779
3595	0.8805
3586	0.883
3577	0.8858
3568	0.8886
3559	0.8913
3550	0.8942
3541	0.8969
3532	0.8998
3523	0.9031
3514	0.9074
3505	0.9105
3496	0.9126
3487	0.9122
3478	0.9108
3469	0.9083
3460	0.9022
3451	0.8504
3442	0.7859
3433	0.7593
3424	0.724
3415	0.6539
3406	0.6209
3397	0.5955
3388	0.4621
3379	0.4472
3370	0.4369
3361	0.427
3352	0.4161
3343	0.3966
3334	0.3613
3325	0.3435
3316	0.3367
3307	0.3319
3298	0.3299
3289	0.3277
3280	0.3275
3271	0.3287
3262	0.3368
3253	0.3554
3244	0.374
3235	0.3885
3226	0.3951
3217	0.3987
3208	0.401
3199	0.4014
3190	0.4002
3181	0.3978
3172	0.3862
3163	0.3737
3154	0.3648
3145	0.3589
3136	0.3554
3127	0.3542
3118	0.3533
3109	0.3534
3100	0.3572
3091	0.3691
3082	0.3891
3073	0.4072
3064	0.4255
3055	0.4436
3046	0.4595
3037	0.4741
3028	0.4856
3019	0.4979
3010	0.5104
3001	0.5195
2992	0.5271
2983	0.5328
2974	0.538
2965	0.5424
2956	0.545
2947	0.5461
2938	0.5468
2929	0.5484
2920	0.5516
2911	0.5583
2902	0.5678
2893	0.578
2884	0.5853
2875	0.5915
2866	0.5948
2857	0.5977
2848	0.6016
2839	0.6059
2830	0.6119
2821	0.6208
2812	0.6406
2803	0.6456
2794	0.6494
2785	0.6528
2776	0.6559
2767	0.6589
2758	0.6618
2749	0.6644
2740	0.6671
2731	0.6697
2722	0.6725
2713	0.6752
2704	0.6783
2695	0.6813
2686	0.6844
2677	0.6875
2668	0.6906
2659	0.6938
2650	0.6973
2641	0.7006
2632	0.704
2623	0.7076
2614	0.7113
2605	0.715
2596	0.7188
2587	0.7224
2578	0.7259
2569	0.7292
2560	0.7327
2551	0.7361
2542	0.7392
2533	0.7423
2524	0.7455
2515	0.7485
2506	0.7515
2497	0.7546
2488	0.7571
2479	0.7594
2470	0.7618
2461	0.7636
2452	0.7652
2443	0.7666
2434	0.7679
2425	0.7693
2416	0.7707
2407	0.7717
2398	0.7727
2389	0.7734
2380	0.7738
2371	0.7735
2362	0.7729
2353	0.7717
2344	0.7704
2335	0.7691
2326	0.7685
2317	0.7702
2308	0.7755
2299	0.7815
2290	0.7867
2281	0.7916
2272	0.7965
2263	0.8013
2254	0.8062
2245	0.8099
2236	0.8121
2227	0.8133
2218	0.814
2209	0.8146
2200	0.8155
2191	0.817
2182	0.8191
2173	0.8222
2164	0.826
2155	0.8295
2146	0.8313
2137	0.833
2128	0.8339
2119	0.835
2110	0.8363
2101	0.8385
2092	0.8407
2083	0.8429
2074	0.8455
2065	0.8483
2056	0.8518
2047	0.8555
2038	0.8596
2029	0.8633
2020	0.8661
2011	0.8675
2002	0.8688
1993	0.8698
1984	0.8712
1975	0.8723
1966	0.8737
1957	0.8749
1948	0.8777
1939	0.8822
1930	0.8872
1921	0.8925
1912	0.8959
1903	0.8972
1894	0.8974
1885	0.8976
1876	0.8984
1867	0.9012
1858	0.9058
1849	0.9115
1840	0.9142
1831	0.9131
1822	0.9124
1813	0.9117
1804	0.9105
1795	0.9097
1786	0.9117
1777	0.9129
1768	0.9085
1759	0.901
1750	0.8918
1741	0.8795
1732	0.8579
1723	0.8486
1714	0.8349
1705	0.8104
1696	0.7721
1687	0.7031
1678	0.5941
1669	0.4716
1660	0.3539
1651	0.3502
1642	0.3444
1633	0.3199
1624	0.3148
1615	0.3322
1606	0.3577
1597	0.3018
1588	0.2994
1579	0.2874
1570	0.2707
1561	0.2923
1552	0.295
1543	0.2882
1534	0.2866
1525	0.2886
1516	0.327
1507	0.3587
1498	0.3813
1489	0.372
1480	0.3918
1471	0.4222
1462	0.43
1453	0.4157
1444	0.4577
1435	0.4759
1426	0.5234
1417	0.5414
1408	0.5284
1399	0.5132
1390	0.5518
1381	0.5876
1372	0.6085
1363	0.5989
1354	0.5187
1345	0.5465
1336	0.5848
1327	0.6077
1318	0.6222
1309	0.6311
1300	0.6208
1291	0.6118
1282	0.6235
1273	0.6359
1264	0.6517
1255	0.6613
1246	0.6597
1237	0.6521
1228	0.65
1219	0.6366
1210	0.6173
1201	0.6468
1192	0.6533
1183	0.6514
1174	0.6523
1165	0.6463
1156	0.6059
1147	0.5601
1138	0.5688
1129	0.6237
1120	0.6505
1111	0.6582
1102	0.6633
1093	0.6659
1084	0.6558
1075	0.6607
1066	0.6687
1057	0.6729
1048	0.6748
1039	0.6765
1030	0.6613
1021	0.6879
1012	0.6916
1003	0.702
994	0.682
985	0.7253
976	0.6906
967	0.6949
958	0.7406
949	0.7799
940	0.8076
931	0.8323
922	0.8464
913	0.8269
904	0.7924
895	0.8031
886	0.8372
877	0.8059
868	0.8224
859	0.8717
850	0.8912
841	0.891
832	0.9117
823	0.8979
814	0.8959
805	0.8956
796	0.8761
787	0.8318
778	0.804
769	0.808
760	0.6047
751	0.7408
742	0.6891
733	0.6819
724	0.7369
715	0.8124
706	0.7784
697	0.5219
688	0.7344
679	0.7598
670	0.7512
