Infrared Spectrum: 7,14-DIMETHYLDIBENZO(a,h)PYRENE
Formula: C26 H18
CAS: 83439-54-7
State: SOLID (KBr PELLET)
Melting point: 373 C
Class: COBLENTZ
Instrument: Not specified, most likely a prism, grating, or hybrid spectrometer.
Sampling: TRANSMISSION
Resolution: 4
Origin: UNION CARBIDE CORPORATION (CARBON PRODUCTS DIVISION)
MICROMETERS	TRANSMITTANCE
2.02	0.305
2.0532	0.312
2.08639	0.312
2.11959	0.314
2.15279	0.322
2.18598	0.325
2.21918	0.33
2.25237	0.34
2.28557	0.342
2.31877	0.348
2.35196	0.352
2.38516	0.357
2.41836	0.365
2.45155	0.366
2.48475	0.369
2.51795	0.372
2.55114	0.38
2.58434	0.384
2.61753	0.386
2.65073	0.39
2.68393	0.392
2.71712	0.397
2.75032	0.401
2.78352	0.401
2.81671	0.4
2.84991	0.4
2.88311	0.4
2.9163	0.397
2.9495	0.398
2.9827	0.402
3.01589	0.413
3.04909	0.418
3.08228	0.43
3.11548	0.433
3.14868	0.438
3.18187	0.445
3.21507	0.458
3.24827	0.462
3.28146	0.46
3.31466	0.457
3.34786	0.46
3.38105	0.461
3.41425	0.462
3.44744	0.461
3.48064	0.461
3.51384	0.462
3.54703	0.462
3.58023	0.47
3.61343	0.476
3.64662	0.484
3.67982	0.489
3.71302	0.494
3.74621	0.502
3.77941	0.505
3.8126	0.51
3.8458	0.514
3.879	0.514
3.91219	0.516
3.94539	0.521
3.97859	0.522
4.01178	0.526
4.04498	0.529
4.07818	0.544
4.11137	0.548
4.14457	0.55
4.17776	0.55
4.21096	0.55
4.24416	0.549
4.27735	0.549
4.31055	0.55
4.34375	0.56
4.37694	0.57
4.41014	0.574
4.44334	0.576
4.47653	0.578
4.50973	0.584
4.54293	0.584
4.57612	0.589
4.60932	0.592
4.64251	0.592
4.67571	0.593
4.70891	0.598
4.7421	0.601
4.7753	0.602
4.8085	0.612
4.84169	0.613
4.87489	0.614
4.90809	0.617
4.94128	0.617
4.97448	0.641
5.00767	0.638
5.04087	0.638
5.07407	0.64
5.10726	0.64
5.14046	0.641
5.17366	0.641
5.20685	0.64
5.24005	0.634
5.27325	0.637
5.30644	0.646
5.33964	0.65
5.37283	0.654
5.40603	0.654
5.43923	0.654
5.47242	0.657
5.50562	0.658
5.53882	0.661
5.57201	0.661
5.60521	0.666
5.63841	0.669
5.6716	0.668
5.7048	0.672
5.73799	0.681
5.77119	0.682
5.80439	0.682
5.83758	0.681
5.87078	0.682
5.90398	0.681
5.93717	0.684
5.97037	0.674
6.00357	0.673
6.03676	0.677
6.06996	0.686
6.10316	0.686
6.13635	0.674
6.16955	0.613
6.20274	0.65
6.23594	0.664
6.26914	0.673
6.30233	0.673
6.33553	0.684
6.36873	0.682
6.40192	0.684
6.43512	0.696
6.46832	0.693
6.50151	0.701
6.53471	0.702
6.5679	0.702
6.6011	0.706
6.6343	0.712
6.66749	0.709
6.70069	0.7
6.73389	0.698
6.76708	0.697
6.80028	0.656
6.83348	0.638
6.86667	0.665
6.89987	0.678
6.93306	0.681
6.96626	0.692
6.99946	0.693
7.03265	0.697
7.06585	0.701
7.09905	0.681
7.13224	0.684
7.16544	0.708
7.19864	0.733
7.23183	0.72
7.26503	0.709
7.29822	0.701
7.33142	0.652
7.36462	0.681
7.39781	0.705
7.43101	0.717
7.46421	0.724
7.4974	0.725
7.5306	0.724
7.5638	0.657
7.59699	0.673
7.63019	0.689
7.66339	0.7
7.69658	0.712
7.72978	0.725
7.76297	0.732
7.79617	0.74
7.82937	0.742
7.86256	0.744
7.89576	0.73
7.92896	0.721
7.96215	0.722
7.99535	0.724
8.02855	0.73
8.06174	0.734
8.09494	0.741
8.12813	0.742
8.16133	0.748
8.19453	0.752
8.22772	0.756
8.26092	0.733
8.29412	0.693
8.32731	0.718
8.36051	0.742
8.39371	0.744
8.4269	0.748
8.4601	0.745
8.49329	0.742
8.52649	0.732
8.55969	0.74
8.59288	0.74
8.62608	0.741
8.65928	0.744
8.69247	0.75
8.72567	0.752
8.75887	0.75
8.79206	0.753
8.82526	0.754
8.85845	0.756
8.89165	0.757
8.92485	0.758
8.95804	0.761
8.99124	0.761
9.02444	0.765
9.05763	0.768
9.09083	0.768
9.12403	0.772
9.15722	0.768
9.19042	0.765
9.22362	0.769
9.25681	0.769
9.29001	0.77
9.3232	0.77
9.3564	0.77
9.3896	0.769
9.42279	0.772
9.45599	0.77
9.48919	0.772
9.52238	0.776
9.55558	0.772
9.58878	0.773
9.62197	0.773
9.65517	0.774
9.68836	0.777
9.72156	0.776
9.75476	0.766
9.78795	0.756
9.82115	0.752
9.85435	0.762
9.88754	0.772
9.92074	0.773
9.95394	0.777
9.98713	0.781
10.0203	0.781
10.0535	0.786
10.0867	0.786
10.1199	0.786
10.1531	0.79
10.1863	0.792
10.2195	0.792
10.2527	0.794
10.2859	0.794
10.3191	0.8
10.3523	0.8
10.3855	0.801
10.4187	0.808
10.4519	0.809
10.4851	0.81
10.5183	0.81
10.5515	0.809
10.5847	0.804
10.6179	0.8
10.6511	0.806
10.6843	0.812
10.7175	0.813
10.7506	0.82
10.7838	0.821
10.817	0.825
10.8502	0.828
10.8834	0.829
10.9166	0.832
10.9498	0.832
10.983	0.83
11.0162	0.833
11.0494	0.833
11.0826	0.83
11.1158	0.824
11.149	0.822
11.1822	0.826
11.2154	0.832
11.2486	0.834
11.2818	0.836
11.315	0.833
11.3482	0.829
11.3814	0.808
11.4146	0.77
11.4478	0.782
11.481	0.813
11.5142	0.822
11.5474	0.833
11.5806	0.834
11.6138	0.838
11.647	0.84
11.6801	0.838
11.7133	0.833
11.7465	0.828
11.7797	0.821
11.8129	0.821
11.8461	0.828
11.8793	0.842
11.9125	0.849
11.9457	0.857
11.9789	0.858
12.0121	0.858
12.0453	0.858
12.0785	0.857
12.1117	0.841
12.1449	0.789
12.1781	0.748
12.2113	0.789
12.2445	0.796
12.2777	0.756
12.3109	0.62
12.3441	0.672
12.3773	0.752
12.4105	0.772
12.4437	0.766
12.4769	0.781
12.5101	0.801
12.5433	0.814
12.5764	0.818
12.6096	0.812
12.6428	0.82
12.676	0.829
12.7092	0.838
12.7424	0.848
12.7756	0.85
12.8088	0.852
12.842	0.857
12.8752	0.857
12.9084	0.862
12.9416	0.861
12.9748	0.86
13.008	0.86
13.0412	0.857
13.0744	0.849
13.1076	0.82
13.1408	0.757
13.174	0.629
13.2072	0.5
13.2404	0.49
13.2736	0.51
13.3068	0.493
13.34	0.37
13.3732	0.3
13.4064	0.261
13.4396	0.352
13.4728	0.484
13.5059	0.561
13.5391	0.584
13.5723	0.589
13.6055	0.592
13.6387	0.656
13.6719	0.7
13.7051	0.724
13.7383	0.74
13.7715	0.745
13.8047	0.757
13.8379	0.764
13.8711	0.769
13.9043	0.772
13.9375	0.776
13.9707	0.781
14.0039	0.782
14.0371	0.784
14.0703	0.786
14.1035	0.786
14.1367	0.79
14.1699	0.792
14.2031	0.789
14.2363	0.785
14.2695	0.78
14.3027	0.77
14.3359	0.753
14.3691	0.729
14.4023	0.7
14.4354	0.626
14.4686	0.55
14.5018	0.536
14.535	0.59
14.5682	0.621
14.6014	0.618
14.6346	0.646
14.6678	0.681
14.701	0.702
14.7342	0.704
14.7674	0.712
14.8006	0.713
14.8338	0.718
14.867	0.717
14.9002	0.72
14.9334	0.713
14.9666	0.681
14.9998	0.658
15.033	0.712
