Infrared Spectrum: Bromochloroacetonitrile
Formula: C 2 H Br Cl N
CAS: 83463-62-1
State: gas
Origin: EPA-IR VAPOR PHASE LIBRARY
1/CM	ABSORBANCE
549.8	0.0009651
559.445	0.001197
569.09	0.0007222
578.735	0.0010891
588.38	0.000701
598.025	0.0011463
607.67	0.00151
617.315	0.00206
626.96	0.00426
636.605	0.00906
646.251	0.01397
655.896	0.0127
665.541	0.00637
675.186	0.00148
684.831	0.0009811
694.476	0.00152
704.121	0.00204
713.766	0.00397
723.411	0.00911
733.056	0.02481
742.701	0.05161
752.346	0.06128
761.991	0.04701
771.636	0.01057
781.281	0.00215
790.926	0.0015
800.571	0.00162
810.216	0.00192
819.861	0.0022
829.507	0.00206
839.152	0.00163
848.797	0.0012781
858.442	0.00111
868.087	0.0011018
877.732	0.0011191
887.377	0.0012135
897.022	0.0012931
906.667	0.0012164
916.312	0.00154
925.957	0.00251
935.602	0.00481
945.247	0.00726
954.892	0.00762
964.537	0.00739
974.182	0.00675
983.827	0.00599
993.472	0.00546
1003.12	0.00257
1012.76	0.0010328
1022.41	0.000689
1032.05	0.0006364
1041.7	0.0007503
1051.34	0.0007597
1060.99	0.0007253
1070.63	0.0007105
1080.28	0.0006817
1089.92	0.0008146
1099.57	0.0007027
1109.21	0.0007172
1118.86	0.0008877
1128.5	0.0011361
1138.15	0.00282
1147.79	0.00847
1157.44	0.01244
1167.08	0.01272
1176.73	0.00438
1186.37	0.0012715
1196.02	0.0008241
1205.66	0.0008128
1215.31	0.0012155
1224.95	0.00227
1234.6	0.00518
1244.24	0.00654
1253.89	0.00561
1263.53	0.00262
1273.18	0.0010881
1282.82	0.0008246
1292.47	0.0008641
1302.11	0.0008753
1311.76	0.0006831
1321.4	0.0005436
1331.05	0.000446
1340.69	0.0005301
1350.34	0.000549
1359.98	0.0005718
1369.63	0.0006415
1379.27	0.0007465
1388.92	0.000775
1398.56	0.0007045
1408.21	0.0005188
1417.85	0.0004926
1427.5	0.0005177
1437.14	0.000609
1446.79	0.0006338
1456.43	0.0006512
1466.08	0.0005907
1475.73	0.0006896
1485.37	0.0007156
1495.02	0.000676
1504.66	0.0006188
1514.31	0.0005449
1523.95	0.0004422
1533.6	0.00041105
1543.24	0.00043728
1552.89	0.0004562
1562.53	0.00038303
1572.18	0.00037815
1581.82	0.0004437
1591.47	0.0004834
1601.11	0.00040611
1610.76	0.00042665
1620.4	0.00039383
1630.05	0.0004546
1639.69	0.0004775
1649.34	0.0004822
1658.98	0.0005084
1668.63	0.0004708
1678.27	0.0004556
1687.92	0.000465
1697.56	0.0005236
1707.21	0.0005277
1716.85	0.0006238
1726.5	0.0005757
1736.14	0.0005309
1745.79	0.0005017
1755.43	0.0004694
1765.08	0.0004852
1774.72	0.0004911
1784.37	0.00042276
1794.01	0.0004087
1803.66	0.0004459
1813.3	0.0004063
1822.95	0.0004972
1832.59	0.0004596
1842.24	0.0004421
1851.88	0.0004606
1861.53	0.00040449
1871.17	0.00042065
1880.82	0.00043929
1890.46	0.00042898
1900.11	0.0004751
1909.75	0.0004456
1919.4	0.00042222
1929.04	0.00039039
1938.69	0.0004408
1948.33	0.0004391
1957.98	0.00039996
1967.62	0.00035509
1977.27	0.00041857
1986.91	0.00042951
1996.56	0.00043217
2006.2	0.00043109
2015.85	0.00038894
2025.49	0.00033637
2035.14	0.000473
2044.78	0.00038163
2054.43	0.00042405
2064.07	0.00039639
2073.72	0.00040851
2083.36	0.00039558
2093.01	0.0004831
2102.65	0.0005307
2112.3	0.0004614
2121.94	0.00042843
2131.59	0.0003185
2141.23	0.00035755
2150.88	0.0004421
2160.52	0.00035828
2170.17	0.00035919
2179.81	0.00039702
2189.46	0.0004591
2199.1	0.0005265
2208.75	0.0006724
2218.39	0.0008708
2228.04	0.00145
2237.68	0.00245
2247.33	0.00329
2256.97	0.00319
2266.62	0.0019
2276.26	0.0008263
2285.91	0.0006506
2295.55	0.0008258
2305.2	0.0009986
2314.84	0.0006924
2324.49	0.0005466
2334.13	0.00036479
2343.78	0.00038754
2353.42	0.00042284
2363.07	0.0003688
2372.72	0.0004804
2382.36	0.0006065
2392.01	0.000719
2401.65	0.0006753
2411.3	0.0006015
2420.94	0.00039848
2430.59	0.00040262
2440.23	0.0003591
2449.88	0.00040814
2459.52	0.0004511
2469.17	0.0005772
2478.81	0.0005485
2488.46	0.0005066
2498.1	0.00040341
2507.75	0.0003148
2517.39	0.000237
2527.04	0.000231
2536.68	0.000228
2546.33	0.000195
2555.97	0.0002569
2565.62	0.0002976
2575.26	0.00027
2584.91	0.0002594
2594.55	0.0003145
2604.2	0.000186
2613.84	0.000241
2623.49	0.000206
2633.13	0.0002624
2642.78	0.000174
2652.42	0.000317
2662.07	0.00033533
2671.71	0.0003004
2681.36	0.000258
2691	0.000233
2700.65	0.0002788
2710.29	0.000228
2719.94	0.00016
2729.58	0.000164
2739.23	0.000227
2748.87	0.000224
2758.52	0.000129
2768.16	0.000126
2777.81	0.00016
2787.45	0.000159
2797.1	0.00012
2806.74	0.000123
2816.39	0.000177
2826.03	0.000234
2835.68	0.000123
2845.32	0.000177
2854.97	0.000187
2864.61	0.000152
2874.26	0.000233
2883.9	0.000224
2893.55	0.000152
2903.19	0.000188
2912.84	0.00014
2922.48	0.000128
2932.13	6.1e-05
2941.77	0.000212
2951.42	0.000175
2961.06	0.000135
2970.71	0.000309
2980.35	0.00035314
2990	0.000644
2999.64	0.00165
3009.29	0.00247
3018.93	0.00231
3028.58	0.00154
3038.22	0.0005785
3047.87	0.000156
3057.51	0.000272
3067.16	0.000212
3076.8	0.000179
3086.45	0.000195
3096.09	0.0003278
3105.74	0.0002497
3115.38	0.000204
3125.03	0.000214
3134.67	0.0002796
3144.32	0.0002541
3153.96	0.00035968
3163.61	0.000221
3173.25	0.0002823
3182.9	0.0003084
3192.54	0.0003214
3202.19	0.000276
3211.83	0.0002505
3221.48	0.000219
3231.12	0.000325
3240.77	0.00022
3250.41	0.000137
3260.06	0.000224
3269.7	0.000347499
3279.35	0.000155
3289	0.000229
3298.64	0.0003232
3308.29	0.0002821
3317.93	0.0002822
3327.58	0.0003143
3337.22	0.0002596
3346.87	0.00042224
3356.51	0.0004424
3366.16	0.000217
3375.8	0.0002639
3385.45	0.0002437
3395.09	0.0003075
3404.74	0.0003042
3414.38	0.0003037
3424.03	0.0004622
3433.67	0.00037609
3443.32	0.00043757
3452.96	0.00035369
3462.61	0.0002693
3472.25	0.00038288
3481.9	0.0003854
3491.54	0.00040202
3501.19	0.000216
3510.83	0.00036728
3520.48	0.000344757
3530.12	0.0003812
3539.77	0.00033222
3549.41	0.00037923
3559.06	0.0003194
3568.7	0.00033423
3578.35	0.00037258
3587.99	0.0003279
3597.64	0.00042717
3607.28	0.00039716
3616.93	0.0003161
3626.57	0.0004846
3636.22	0.0002612
3645.86	0.000223
3655.51	0.00042429
3665.15	0.0005114
3674.8	0.0004883
3684.44	0.00035608
3694.09	0.000342706
3703.73	0.00033208
3713.38	0.00035529
3723.02	0.0004792
3732.67	0.000203
3742.31	0.0003245
3751.96	0.000191
3761.6	0.0003114
3771.25	0.0004559
3780.89	0.000301
3790.54	0.00017
3800.18	0.000196
3809.83	0.000157
3819.47	0.000179
3829.12	0.0002679
3838.76	0.000182
3848.41	0.000269
3858.05	0.000234
3867.7	0.0002779
3877.34	0.000201
3886.99	0.000215
3896.63	0.0004659
3906.28	0.000236
3915.92	0.0003224
3925.57	0.000389
3935.21	0
3944.86	0.0002576
3954.5	0.000178
3964.15	0.000224
3973.79	0.00035101
3983.44	0.0003125
3993.08	0.0003152
