Infrared Spectrum: 2,2'-DIHYDROXYBENZOPHENONE
Formula: C13 H10 O3
CAS: 835-11-0
State: SOLUTION (10% CCl4 FOR 2.5-7.5, 10% CS2 FOR 7.5-16 MICRON)
Class: COBLENTZ
Instrument: Not specified, most likely a prism, grating, or hybrid spectrometer.
Sampling: TRANSMISSION
Path length: 0.01 CM, 0.01 CM
Resolution: 4
Origin: DOW CHEMICAL COMPANY
MICROMETERS	TRANSMITTANCE
2.072	0.898
2.10776	0.894
2.14351	0.891
2.17927	0.889
2.21503	0.889
2.25078	0.889
2.28654	0.892
2.3223	0.894
2.35805	0.896
2.39381	0.9
2.42957	0.901
2.46532	0.9
2.50108	0.9
2.53683	0.9
2.57259	0.9
2.60835	0.9
2.6441	0.9
2.67986	0.9
2.71562	0.901
2.75137	0.9
2.78713	0.884
2.82289	0.854
2.85864	0.821
2.8944	0.764
2.93016	0.708
2.96591	0.643
3.00167	0.598
3.03743	0.561
3.07318	0.54
3.10894	0.524
3.1447	0.524
3.18045	0.533
3.21621	0.552
3.25197	0.564
3.28772	0.563
3.32348	0.564
3.35924	0.65
3.39499	0.701
3.43075	0.757
3.4665	0.784
3.50226	0.798
3.53802	0.8
3.57377	0.814
3.60953	0.817
3.64529	0.819
3.68104	0.821
3.7168	0.826
3.75256	0.831
3.78831	0.836
3.82407	0.835
3.85983	0.831
3.89558	0.835
3.93134	0.838
3.9671	0.847
4.00285	0.85
4.03861	0.857
4.07437	0.861
4.11012	0.866
4.14588	0.866
4.18164	0.866
4.21739	0.871
4.25315	0.873
4.28891	0.873
4.32466	0.873
4.36042	0.873
4.39617	0.873
4.43193	0.875
4.46769	0.878
4.50344	0.882
4.5392	0.884
4.57496	0.882
4.61071	0.882
4.64647	0.88
4.68223	0.88
4.71798	0.88
4.75374	0.878
4.7895	0.87
4.82525	0.873
4.86101	0.873
4.89677	0.866
4.93252	0.868
4.96828	0.875
5.00404	0.875
5.03979	0.873
5.07555	0.864
5.11131	0.833
5.14706	0.826
5.18282	0.822
5.21858	0.845
5.25433	0.859
5.29009	0.863
5.32584	0.868
5.3616	0.861
5.39736	0.852
5.43311	0.849
5.46887	0.84
5.50463	0.822
5.54038	0.843
5.57614	0.854
5.6119	0.856
5.64765	0.85
5.68341	0.84
5.71917	0.829
5.75492	0.815
5.79068	0.812
5.82644	0.812
5.86219	0.814
5.89795	0.822
5.93371	0.814
5.96946	0.801
6.00522	0.768
6.04098	0.731
6.07673	0.578
6.11249	0.426
6.14825	0.124
6.184	0.056
6.21976	0.066
6.25551	0.163
6.29127	0.073
6.32703	0.066
6.36278	0.108
6.39854	0.356
6.4343	0.468
6.47005	0.545
6.50581	0.596
6.54157	0.629
6.57732	0.635
6.61308	0.598
6.64884	0.431
6.68459	0.363
6.72035	0.208
6.75611	0.052
6.79186	0.133
6.82762	0.222
6.86338	0.271
6.89913	0.424
6.93489	0.292
6.97065	0.414
7.0064	0.507
7.04216	0.522
7.07791	0.501
7.11367	0.501
7.14943	0.471
7.18518	0.424
7.22094	0.405
7.2567	0.385
7.29245	0.338
7.32821	0.308
7.36397	0.256
7.39972	0.14
7.43548	0.063
7.47124	0.056
7.50699	0.203
7.54275	0.27
7.57851	0.261
7.61426	0.147
7.65002	0.101
7.68578	0.268
7.72153	0.394
7.75729	0.428
7.79305	0.48
7.8288	0.459
7.86456	0.35
7.90032	0.149
7.93607	0.049
7.97183	0.036
8.00758	0.052
8.04334	0.049
8.0791	0.031
8.11485	0.026
8.15061	0.028
8.18637	0.033
8.22212	0.059
8.25788	0.068
8.29364	0.075
8.32939	0.105
8.36515	0.154
8.40091	0.196
8.43666	0.226
8.47242	0.242
8.50818	0.268
8.54393	0.326
8.57969	0.38
8.61545	0.292
8.6512	0.121
8.68696	0.066
8.72272	0.229
8.75847	0.524
8.79423	0.684
8.82999	0.728
8.86574	0.735
8.9015	0.721
8.93725	0.619
8.97301	0.552
9.00877	0.668
9.04452	0.759
9.08028	0.803
9.11604	0.814
9.15179	0.833
9.18755	0.85
9.22331	0.882
9.25906	0.903
9.29482	0.914
9.33058	0.926
9.36633	0.935
9.40209	0.942
9.43785	0.947
9.4736	0.945
9.50936	0.908
9.54512	0.828
9.58087	0.673
9.61663	0.514
9.65239	0.373
9.68814	0.668
9.7239	0.801
9.75966	0.889
9.79541	0.942
9.83117	0.95
9.86692	0.961
9.90268	0.97
9.93844	0.975
9.97419	0.973
10.01	0.968
10.0457	0.88
10.0815	0.945
10.1172	0.936
10.153	0.928
10.1887	0.907
10.2245	0.885
10.2602	0.903
10.296	0.919
10.3318	0.903
10.3675	0.882
10.4033	0.868
10.439	0.861
10.4748	0.821
10.5105	0.701
10.5463	0.642
10.5821	0.592
10.6178	0.296
10.6536	0.089
10.6893	0.207
10.7251	0.615
10.7608	0.749
10.7966	0.845
10.8324	0.9
10.8681	0.915
10.9039	0.931
10.9396	0.943
10.9754	0.954
11.0111	0.959
11.0469	0.97
11.0826	0.973
11.1184	0.978
11.1542	0.982
11.1899	0.982
11.2257	0.977
11.2614	0.977
11.2972	0.973
11.3329	0.961
11.3687	0.949
11.4045	0.929
11.4402	0.905
11.476	0.861
11.5117	0.791
11.5475	0.577
11.5832	0.521
11.619	0.628
11.6548	0.784
11.6905	0.852
11.7263	0.852
11.762	0.775
11.7978	0.533
11.8335	0.317
11.8693	0.252
11.905	0.426
11.9408	0.65
11.9766	0.743
12.0123	0.805
12.0481	0.821
12.0838	0.826
12.1196	0.824
12.1553	0.805
12.1911	0.752
12.2269	0.666
12.2626	0.508
12.2984	0.389
12.3341	0.373
12.3699	0.489
12.4056	0.6
12.4414	0.622
12.4772	0.601
12.5129	0.596
12.5487	0.635
12.5844	0.712
12.6202	0.801
12.6559	0.814
12.6917	0.812
12.7274	0.801
12.7632	0.782
12.799	0.752
12.8347	0.721
12.8705	0.682
12.9062	0.633
12.942	0.563
12.9777	0.478
13.0135	0.335
13.0493	0.235
13.085	0.14
13.1208	0.087
13.1565	0.057
13.1923	0.042
13.228	0.035
13.2638	0.033
13.2996	0.038
13.3353	0.1
13.3711	0.217
13.4068	0.343
13.4426	0.396
13.4783	0.419
13.5141	0.449
13.5498	0.461
13.5856	0.468
13.6214	0.468
13.6571	0.466
13.6929	0.461
13.7286	0.456
13.7644	0.449
13.8001	0.443
13.8359	0.436
13.8717	0.428
13.9074	0.417
13.9432	0.405
13.9789	0.394
14.0147	0.38
14.0504	0.368
14.0862	0.352
14.122	0.331
14.1577	0.303
14.1935	0.282
14.2292	0.266
14.265	0.261
14.3007	0.259
14.3365	0.259
14.3722	0.254
14.408	0.235
14.4438	0.21
14.4795	0.192
14.5153	0.196
14.551	0.226
14.5868	0.326
14.6225	0.415
14.6583	0.471
14.6941	0.5
14.7298	0.505
14.7656	0.517
14.8013	0.521
14.8371	0.519
14.8728	0.519
14.9086	0.517
14.9444	0.514
14.9801	0.51
15.0159	0.505
15.0516	0.501
15.0874	0.494
15.1231	0.489
15.1589	0.48
15.1946	0.461
15.2304	0.442
15.2662	0.431
15.3019	0.419
15.3377	0.385
15.3734	0.352
15.4092	0.321
15.4449	0.307
15.4807	0.301
15.5165	0.303
15.5522	0.308
15.588	0.328
15.6237	0.356
15.6595	0.4
15.6952	0.449
15.731	0.48
15.7668	0.5
15.8025	0.522
15.8383	0.542
15.874	0.549
15.9098	0.556
15.9455	0.554
15.9813	0.526
16.017	0.524
