Infrared Spectrum: 2-(O-HYDROXY PHENYL)BENZOXAZOLE
Formula: C13 H9 N O2
CAS: 835-64-3
State: SOLID (MULL)
Melting point: 121-126 C
Class: COBLENTZ
Instrument: Not specified, most likely a prism, grating, or hybrid spectrometer.
Sampling: TRANSMISSION
Resolution: 4
Origin: WYANDOTTE CHEMICALS CORP., WYANDOTTE, MICHIGAN, USA
MICROMETERS	TRANSMITTANCE
2.038	0.404
2.07777	0.397
2.11753	0.405
2.1573	0.407
2.19706	0.407
2.23683	0.4
2.27659	0.397
2.31636	0.397
2.35613	0.404
2.39589	0.407
2.43566	0.414
2.47542	0.42
2.51519	0.415
2.55496	0.42
2.59472	0.434
2.63449	0.439
2.67425	0.444
2.71402	0.442
2.75378	0.445
2.79355	0.444
2.83332	0.442
2.87308	0.442
2.91285	0.445
2.95261	0.442
2.99238	0.435
3.03215	0.432
3.07191	0.417
3.11168	0.391
3.15144	0.362
3.19121	0.342
3.23097	0.327
3.27074	0.301
3.31051	0.247
3.35027	0.059
3.39004	0.031
3.4298	0.041
3.46957	0.044
3.50934	0.058
3.5491	0.306
3.58887	0.412
3.62863	0.457
3.6684	0.469
3.70816	0.467
3.74793	0.482
3.7877	0.482
3.82746	0.495
3.86723	0.507
3.90699	0.519
3.94676	0.53
3.98652	0.54
4.02629	0.549
4.06606	0.55
4.10582	0.562
4.14559	0.564
4.18535	0.564
4.22512	0.57
4.26489	0.542
4.30465	0.562
4.34442	0.572
4.38418	0.6
4.42395	0.603
4.46371	0.595
4.50348	0.608
4.54325	0.615
4.58301	0.618
4.62278	0.625
4.66254	0.632
4.70231	0.632
4.74208	0.638
4.78184	0.643
4.82161	0.645
4.86137	0.647
4.90114	0.66
4.9409	0.667
4.98067	0.677
5.02044	0.688
5.0602	0.687
5.09997	0.695
5.13973	0.688
5.1795	0.688
5.21926	0.688
5.25903	0.688
5.2988	0.69
5.33856	0.697
5.37833	0.702
5.41809	0.72
5.45786	0.727
5.49763	0.738
5.53739	0.738
5.57716	0.737
5.61692	0.743
5.65669	0.735
5.69645	0.768
5.73622	0.775
5.77599	0.81
5.81575	0.805
5.85552	0.821
5.89528	0.84
5.93505	0.846
5.97482	0.881
6.01458	0.935
6.05435	0.98
6.09411	0.515
6.13388	0.419
6.17364	0.519
6.21341	0.535
6.25318	0.322
6.29294	0.479
6.33271	0.645
6.37247	0.672
6.41224	0.547
6.45201	0.374
6.49177	0.597
6.53154	0.622
6.5713	0.662
6.61107	0.693
6.65083	0.497
6.6906	0.198
6.73037	0.221
6.77013	0.128
6.8099	0.103
6.84966	0.086
6.88943	0.168
6.92919	0.327
6.96896	0.522
7.00873	0.557
7.04849	0.494
7.08826	0.435
7.12802	0.444
7.16779	0.485
7.20756	0.347
7.24732	0.247
7.28709	0.4
7.32685	0.442
7.36662	0.597
7.40638	0.512
7.44615	0.547
7.48592	0.65
7.52568	0.6
7.56545	0.65
7.60521	0.688
7.64498	0.717
7.68475	0.55
7.72451	0.615
7.76428	0.62
7.80404	0.545
7.84381	0.727
7.88357	0.702
7.92334	0.337
7.96311	0.374
8.00287	0.231
8.04264	0.259
8.0824	0.259
8.12217	0.334
8.16194	0.41
8.2017	0.45
8.24147	0.467
8.28123	0.537
8.321	0.599
8.36076	0.599
8.40053	0.5
8.4403	0.549
8.48006	0.617
8.51983	0.647
8.55959	0.66
8.59936	0.465
8.63912	0.432
8.67889	0.487
8.71866	0.47
8.75842	0.599
8.79819	0.643
8.83795	0.642
8.87772	0.597
8.91749	0.658
8.95725	0.69
8.99702	0.65
9.03678	0.628
9.07655	0.7
9.11631	0.725
9.15608	0.738
9.19585	0.753
9.23561	0.77
9.27538	0.785
9.31514	0.803
9.35491	0.833
9.39468	0.876
9.43444	0.923
9.47421	0.552
9.51397	0.382
9.55374	0.559
9.5935	0.635
9.63327	0.643
9.67304	0.602
9.7128	0.647
9.75257	0.698
9.79233	0.723
9.8321	0.745
9.87186	0.762
9.91163	0.772
9.9514	0.732
9.99116	0.718
10.0309	0.765
10.0707	0.777
10.1105	0.782
10.1502	0.79
10.19	0.792
10.2298	0.773
10.2695	0.772
10.3093	0.787
10.3491	0.792
10.3888	0.8
10.4286	0.811
10.4684	0.81
10.5081	0.787
10.5479	0.772
10.5876	0.798
10.6274	0.777
10.6672	0.727
10.7069	0.635
10.7467	0.638
10.7865	0.602
10.8262	0.653
10.866	0.811
10.9058	0.851
10.9455	0.87
10.9853	0.893
11.0251	0.916
11.0648	0.928
11.1046	0.94
11.1444	0.941
11.1841	0.77
11.2239	0.595
11.2637	0.722
11.3034	0.811
11.3432	0.863
11.383	0.883
11.4227	0.911
11.4625	0.911
11.5023	0.896
11.542	0.89
11.5818	0.895
11.6216	0.893
11.6613	0.866
11.7011	0.846
11.7409	0.843
11.7806	0.843
11.8204	0.851
11.8602	0.823
11.8999	0.662
11.9397	0.628
11.9795	0.718
12.0192	0.79
12.059	0.84
12.0988	0.863
12.1385	0.878
12.1783	0.886
12.218	0.891
12.2578	0.891
12.2976	0.898
12.3373	0.9
12.3771	0.876
12.4169	0.848
12.4566	0.818
12.4964	0.667
12.5362	0.422
12.5759	0.404
12.6157	0.537
12.6555	0.627
12.6952	0.668
12.735	0.69
12.7748	0.637
12.8145	0.555
12.8543	0.527
12.8941	0.527
12.9338	0.512
12.9736	0.489
13.0134	0.465
13.0531	0.545
13.0929	0.539
13.1327	0.45
13.1724	0.361
13.2122	0.302
13.252	0.301
13.2917	0.286
13.3315	0.237
13.3713	0.227
13.411	0.226
13.4508	0.201
13.4906	0.158
13.5303	0.158
13.5701	0.222
13.6099	0.346
13.6496	0.452
13.6894	0.537
13.7291	0.569
13.7689	0.587
13.8087	0.57
13.8484	0.529
13.8882	0.5
13.928	0.47
13.9677	0.415
14.0075	0.361
14.0473	0.337
14.087	0.302
14.1268	0.284
14.1666	0.269
14.2063	0.267
14.2461	0.282
14.2859	0.319
14.3256	0.4
14.3654	0.477
14.4052	0.569
14.4449	0.599
14.4847	0.577
14.5245	0.542
14.5642	0.5
14.604	0.477
14.6438	0.462
14.6835	0.454
14.7233	0.452
14.7631	0.462
14.8028	0.48
14.8426	0.519
14.8824	0.549
14.9221	0.57
14.9619	0.559
15.0017	0.537
15.0414	0.524
15.0812	0.544
15.121	0.58
15.1607	0.622
15.2005	0.668
15.2402	0.695
15.28	0.72
15.3198	0.735
15.3595	0.735
15.3993	0.743
15.4391	0.752
15.4788	0.75
15.5186	0.752
15.5584	0.752
15.5981	0.752
15.6379	0.752
15.6777	0.752
15.7174	0.745
15.7572	0.74
15.797	0.73
15.8367	0.722
15.8765	0.69
15.9163	0.662
15.956	0.64
15.9958	0.632
