Infrared Spectrum: Naphazoline
Formula: C 14 H 14 N 2
CAS: 835-31-4
State: gas
Instrument: HP-GC/MS/IRD
Origin: NIST Mass Spectrometry Data Center
1/CM	ABSORBANCE
550	0.0009582
562	0.000627
574	0.0005904
586	0.0003642
598	0.0003162
610	0.0002844
622	0.0004704
634	0.0002766
646	0.000279
658	0.0001914
670	0.0001542
682	0.0001314
694	0.0002586
706	0.0003156
718	0.00042
730	0.0004722
742	0.0004242
754	0.0005208
766	0.0025932
778	0.006
790	0.0028266
802	0.001452
814	0.0003714
826	0.0001278
838	0.0001278
850	0.0001152
862	0.0001308
874	5.76e-05
886	1.62e-05
898	9.84e-05
910	0.000306
922	0.0002826
934	8.88e-05
946	0.0001308
958	0.0002742
970	0.000414
982	0.0008658
994	0.0013404
1006	0.0009456
1018	0.0010794
1030	0.0008778
1042	0.0005448
1054	0.000231
1066	0.0001884
1078	0.0002838
1090	0.0001584
1102	5.58e-05
1114	5.4e-05
1126	9.78e-05
1138	0.0002076
1150	0.0002688
1162	0.000441
1174	0.0005604
1186	0.0004716
1198	0.0003378
1210	0.0004638
1222	0.0004146
1234	0.0004872
1246	0.0006834
1258	0.0008436
1270	0.000927
1282	0.0015684
1294	0.0014118
1306	0.0007368
1318	0.0007278
1330	0.0004512
1342	0.0002904
1354	0.000324
1366	0.000324
1378	0.0005118
1390	0.001122
1402	0.001899
1414	0.0030084
1426	0.0037242
1438	0.002016
1450	0.0009102
1462	0.0005106
1474	0.000387
1486	0.0004818
1498	0.000495
1510	0.0006786
1522	0.0003438
1534	0.0001812
1546	8.82e-05
1558	9.42e-05
1570	0.0002736
1582	0.0005022
1594	0.0008754
1606	0.0008442
1618	0.0011556
1630	0.0028614
1642	0.0055134
1654	0.0025878
1666	0.0009414
1678	0.0004962
1690	0.0003462
1702	0.000243
1714	0.0001692
1726	0.0001716
1738	0.000108
1750	9.54e-05
1762	9.96e-05
1774	8.52e-05
1786	7.92e-05
1798	0.0001464
1810	0.0001566
1822	0.0001464
1834	0.0001182
1846	8.1e-05
1858	0.0001206
1870	0.0001128
1882	7.92e-05
1894	7.86e-05
1906	0.0001632
1918	0.000237
1930	0.0002172
1942	0.0001638
1954	0.0001344
1966	3.06e-05
1978	3.66e-05
1990	1.56e-05
2002	2.64e-05
2014	1.98e-05
2026	5.22e-05
2038	7.8e-06
2050	3e-05
2062	4.02e-05
2074	4.86e-05
2086	2.64e-05
2098	1.38e-05
2110	1.38e-05
2122	2.28e-05
2134	3.66e-05
2146	1.2e-05
2158	3.6e-05
2170	3.72e-05
2182	3.18e-05
2194	2.88e-05
2206	1.8e-05
2218	1.74e-05
2230	2.58e-05
2242	3.6e-05
2254	3.24e-05
2266	5.16e-05
2278	4.5e-05
2290	3.66e-05
2302	4.08e-05
2314	3.66e-05
2326	6.18e-05
2338	5.46e-05
2350	1.98e-05
2362	3.36e-05
2374	3.84e-05
2386	3.12e-05
2398	5.1e-05
2410	3.36e-05
2422	5.04e-05
2434	2.4e-05
2446	4.8e-06
2458	2.94e-05
2470	1.44e-05
2482	2.76e-05
2494	3.84e-05
2506	9.6e-06
2518	2.94e-05
2530	4.74e-05
2542	4.2e-05
2554	3.84e-05
2566	4.02e-05
2578	3.96e-05
2590	3.78e-05
2602	4.38e-05
2614	2.88e-05
2626	4.92e-05
2638	5.28e-05
2650	6.96e-05
2662	5.58e-05
2674	6.12e-05
2686	6e-05
2698	6.24e-05
2710	5.64e-05
2722	8.1e-05
2734	0.0001032
2746	0.0001158
2758	0.0001296
2770	0.0001242
2782	0.0001602
2794	0.000171
2806	0.0002244
2818	0.000288
2830	0.0004356
2842	0.0006528
2854	0.0009426
2866	0.0018222
2878	0.0031692
2890	0.002337
2902	0.0015408
2914	0.0014166
2926	0.0019092
2938	0.0028956
2950	0.0033336
2962	0.0024348
2974	0.0020046
2986	0.0014862
2998	0.0008454
3010	0.000819
3022	0.0008166
3034	0.0010896
3046	0.0020394
3058	0.0027078
3070	0.0025236
3082	0.0014406
3094	0.0009174
3106	0.0004668
3118	0.0002142
3130	0.0001518
3142	0.0001086
3154	8.82e-05
3166	8.7e-05
3178	6.6e-05
3190	7.08e-05
3202	6.78e-05
3214	8.88e-05
3226	5.22e-05
3238	4.8e-05
3250	0.000123
3262	0.0001104
3274	9.9e-05
3286	6.78e-05
3298	4.38e-05
3310	5.28e-05
3322	5.4e-05
3334	2.22e-05
3346	5.28e-05
3358	5.52e-05
3370	6.96e-05
3382	6.06e-05
3394	9.84e-05
3406	0.0002256
3418	0.0005436
3430	0.0007476
3442	0.0003414
3454	0.0001926
3466	0.0001548
3478	0.0001164
3490	9.96e-05
3502	6.66e-05
3514	3.3e-05
3526	5.16e-05
3538	6.06e-05
3550	3.9e-05
3562	1.2e-05
3574	7.32e-05
3586	6.72e-05
3598	4.32e-05
3610	4.56e-05
3622	2.76e-05
3634	7.68e-05
3646	3.72e-05
3658	6.18e-05
3670	7.98e-05
3682	5.76e-05
3694	4.2e-05
3706	7.14e-05
3718	4.08e-05
3730	1.2e-06
3742	7.2e-06
3754	1.8e-05
3766	5.46e-05
3778	6.36e-05
3790	6.96e-05
3802	3e-05
3814	8.34e-05
3826	8.94e-05
3838	9.12e-05
