Infrared Spectrum: ETHYL-3, 4-DIHYDRO-2, -H-PYRAN CARBOXYLATE
Formula: C8 H12 O3
CAS: 83568-11-0
State: LIQUID
Class: COBLENTZ
Instrument: Not specified, most likely a grating spectrometer.
Sampling: TRANSMISSION
Path length: SMEAR (CsBr PLATES)
Resolution: 4
Origin: STANDARD OIL OF OHIO
1/CM	TRANSMITTANCE
232.457	0.762
241.924	0.762
251.39	0.762
260.857	0.757
270.323	0.75
279.79	0.745
289.257	0.733
298.723	0.725
308.19	0.716
317.656	0.701
327.123	0.676
336.59	0.655
346.056	0.632
355.523	0.613
364.99	0.613
374.456	0.627
383.923	0.655
393.389	0.677
402.856	0.684
412.323	0.657
421.789	0.639
431.256	0.603
440.722	0.575
450.189	0.578
459.656	0.586
469.122	0.618
478.589	0.642
488.055	0.645
497.522	0.639
506.989	0.615
516.455	0.6
525.922	0.603
535.388	0.6
544.855	0.608
554.322	0.62
563.788	0.63
573.255	0.61
582.721	0.6389
592.188	0.671
601.655	0.688
611.121	0.689
620.588	0.688
630.055	0.666
639.521	0.642
648.988	0.644
658.454	0.639
667.921	0.65
677.388	0.671
686.854	0.693
696.321	0.704
705.787	0.693
715.254	0.652
724.721	0.563
734.187	0.563
743.654	0.575
753.12	0.596
762.587	0.618
772.054	0.623
781.52	0.64
790.987	0.642
800.453	0.618
809.92	0.59
819.387	0.583
828.853	0.634
838.32	0.5561
847.787	0.3991
857.253	0.323
866.72	0.3769
876.186	0.456
885.653	0.507
895.12	0.414
904.586	0.305
914.053	0.298
923.519	0.362
932.986	0.421
942.453	0.381
951.919	0.344
961.386	0.2641
970.852	0.2
980.319	0.143
989.786	0.155
999.252	0.192
1008.72	0.165
1018.19	0.109
1027.65	0.062
1037.12	0.064
1046.59	0.082
1056.05	0.114
1065.52	0.092
1074.99	0.092
1084.45	0.096
1093.92	0.099
1103.38	0.102
1112.85	0.101
1122.32	0.091
1131.78	0.109
1141.25	0.134
1150.72	0.146
1160.18	0.107
1169.65	0.097
1179.12	0.079
1188.58	0.075
1198.05	0.072
1207.52	0.08
1216.98	0.092
1226.45	0.114
1235.92	0.124
1245.38	0.139
1254.85	0.158
1264.32	0.156
1273.78	0.148
1283.25	0.148
1292.72	0.121
1302.18	0.124
1311.65	0.207
1321.12	0.268
1330.58	0.264
1340.05	0.274
1349.52	0.273
1358.98	0.283
1368.45	0.18
1377.92	0.173
1387.38	0.251
1396.85	0.274
1406.32	0.333
1415.78	0.399
1425.25	0.399
1434.72	0.2881
1444.18	0.224
1453.65	0.278
1463.12	0.301
1472.58	0.392
1482.05	0.504
1491.52	0.7041
1500.98	0.78
1510.45	0.806
1519.92	0.822
1529.38	0.836
1538.85	0.839
1548.32	0.843
1557.78	0.838
1567.25	0.827
1576.72	0.816
1586.18	0.801
1595.65	0.774
1605.12	0.752
1614.58	0.723
1624.05	0.65
1633.51	0.593
1642.98	0.477
1652.45	0.3821
1661.91	0.602
1671.38	0.62
1680.85	0.551
1690.31	0.467
1699.78	0.332
1709.25	0.204
1718.71	0.104
1728.18	0.06
1737.65	0.059
1747.11	0.06
1756.58	0.064
1766.05	0.146
1775.51	0.345
1784.98	0.465
1794.45	0.5
1803.91	0.561
1813.38	0.661
1822.85	0.758
1832.31	0.817
1841.78	0.843
1851.25	0.86
1860.71	0.866
1870.18	0.87
1879.65	0.868
1889.11	0.868
1898.58	0.876
1908.05	0.885
1917.51	0.888
1926.98	0.89
1936.45	0.893
1945.91	0.893
1955.38	0.897
1964.85	0.895
1974.31	0.897
1983.78	0.898
1993.25	0.902
2002.71	0.907
2012.18	0.9075
2021.65	0.903
2031.11	0.9
2040.58	0.897
2050.05	0.897
2059.51	0.895
2068.98	0.897
2078.45	0.898
2087.91	0.902
2097.38	0.905
2106.85	0.908
2116.31	0.9101
2125.78	0.912
2135.25	0.912
2144.71	0.91
2154.18	0.91
2163.64	0.91
2173.11	0.912
2182.58	0.9125
2192.04	0.912
2201.51	0.91
2210.98	0.91
2220.44	0.91
2229.91	0.91
2239.38	0.91
2248.84	0.91
2258.31	0.9111
2267.78	0.912
2277.24	0.913
2286.71	0.912
2296.18	0.912
2305.64	0.912
2315.11	0.913
2324.58	0.9129
2334.04	0.91
2343.51	0.912
2352.98	0.912
2362.44	0.9097
2371.91	0.9024
2381.38	0.8977
2390.84	0.893
2400.31	0.8952
2409.78	0.897
2419.24	0.898
2428.71	0.9
2438.18	0.902
2447.64	0.9
2457.11	0.8996
2466.58	0.8924
2476.04	0.8879
2485.51	0.885
2494.98	0.887
2504.44	0.8874
2513.91	0.883
2523.38	0.883
2532.84	0.883
2542.31	0.881
2551.78	0.875
2561.24	0.873
2570.71	0.8708
2580.18	0.8687
2589.64	0.8647
2599.11	0.86
2608.58	0.8557
2618.04	0.853
2627.51	0.849
2636.98	0.842
2646.44	0.8338
2655.91	0.827
2665.38	0.826
2674.84	0.8263
2684.31	0.8218
2693.78	0.8163
2703.24	0.812
2712.71	0.8096
2722.17	0.8002
2731.64	0.795
2741.11	0.797
2750.57	0.7984
2760.04	0.7944
2769.51	0.784
2778.97	0.7725
2788.44	0.7508
2797.91	0.7399
2807.37	0.706
2816.84	0.6749
2826.31	0.6326
2835.77	0.5685
2845.24	0.4704
2854.71	0.3704
2864.17	0.2972
2873.64	0.2837
2883.11	0.2908
2892.57	0.262
2902.04	0.229
2911.51	0.2158
2920.97	0.1901
2930.44	0.1495
2939.91	0.1495
2949.37	0.153
2958.84	0.1591
2968.31	0.166
2977.77	0.161
2987.24	0.2046
2996.71	0.3187
3006.17	0.4142
3015.64	0.5517
3025.11	0.6471
3034.57	0.685
3044.04	0.7046
3053.51	0.708
3062.97	0.6887
3072.44	0.7069
3081.91	0.7303
3091.37	0.7396
3100.84	0.741
3110.31	0.741
3119.77	0.74
3129.24	0.7408
3138.71	0.7371
3148.17	0.7184
3157.64	0.7104
3167.11	0.6997
3176.57	0.6874
3186.04	0.6765
3195.51	0.663
3204.97	0.6508
3214.44	0.639
3223.91	0.6298
3233.37	0.6227
3242.84	0.6088
3252.3	0.6
3261.77	0.5902
3271.24	0.5812
3280.7	0.5751
3290.17	0.5629
3299.64	0.5534
3309.1	0.5416
3318.57	0.534
3328.04	0.5221
3337.5	0.5123
3346.97	0.4975
3356.44	0.4785
3365.9	0.4689
3375.37	0.4516
3384.84	0.4381
3394.3	0.4216
3403.77	0.4111
3413.24	0.3972
3422.7	0.38
3432.17	0.3673
3441.64	0.3508
3451.1	0.3404
3460.57	0.3342
3470.04	0.332
3479.5	0.3338
3488.97	0.3398
3498.44	0.3511
3507.9	0.3696
3517.37	0.3935
3526.84	0.4204
3536.3	0.4514
3545.77	0.493
3555.24	0.5304
3564.7	0.5751
3574.17	0.6228
3583.64	0.6632
3593.1	0.6891
3602.57	0.7155
3612.04	0.7352
3621.5	0.7577
3630.97	0.7784
3640.44	0.7966
3649.9	0.8162
3659.37	0.8407
3668.84	0.8677
3678.3	0.8967
3687.77	0.9073
3697.24	0.92
3706.7	0.9245
3716.17	0.927
3725.64	0.925
3735.1	0.92
3744.57	0.922
3754.04	0.922
3763.5	0.924
3772.97	0.922
3782.43	0.92
3791.9	0.917
3801.37	0.919
3810.83	0.917
3820.3	0.915
3829.77	0.915
3839.23	0.915
3848.7	0.915
3858.17	0.915
3867.63	0.915
3877.1	0.916
3886.57	0.915
