Infrared Spectrum: N-(4-Methoxybenzylidene)aniline
Formula: C 14 H 13 N O
CAS: 836-41-9
State: gas
Origin: EPA-IR VAPOR PHASE LIBRARY
1/CM	ABSORBANCE
549.9	0.01879
559.547	0.01044
569.193	0.00688
578.84	0.00511
588.486	0.0041382
598.133	0.0037787
607.779	0.00548
617.426	0.01067
627.072	0.00697
636.719	0.00572
646.365	0.00536
656.012	0.00539
665.658	0.00783
675.305	0.01385
684.951	0.02583
694.598	0.03157
704.245	0.02113
713.891	0.01254
723.538	0.01051
733.184	0.01399
742.831	0.02452
752.477	0.02965
762.124	0.02759
771.77	0.02865
781.417	0.01512
791.063	0.01149
800.71	0.01327
810.356	0.01631
820.003	0.02602
829.649	0.04121
839.296	0.03854
848.943	0.0239
858.589	0.01944
868.236	0.03394
877.882	0.03887
887.529	0.01803
897.175	0.01569
906.822	0.01522
916.468	0.00981
926.115	0.00704
935.761	0.00642
945.408	0.00594
955.054	0.00731
964.701	0.01059
974.347	0.01214
983.994	0.00995
993.64	0.0099
1003.29	0.01326
1012.93	0.02026
1022.58	0.03951
1032.23	0.05496
1041.87	0.05742
1051.52	0.03084
1061.17	0.01798
1070.81	0.01383
1080.46	0.01085
1090.11	0.0104
1099.75	0.01399
1109.4	0.01585
1119.05	0.01106
1128.69	0.00989
1138.34	0.01288
1147.99	0.02635
1157.63	0.11195
1167.28	0.23256
1176.92	0.06835
1186.57	0.0764
1196.22	0.04803
1205.86	0.02873
1215.51	0.0357
1225.16	0.05343
1234.8	0.10972
1244.45	0.21834
1254.1	0.23728
1263.74	0.12384
1273.39	0.0612
1283.04	0.05763
1292.68	0.07413
1302.33	0.08719
1311.98	0.04893
1321.62	0.02143
1331.27	0.0144
1340.92	0.01322
1350.56	0.01249
1360.21	0.01216
1369.86	0.01265
1379.5	0.01043
1389.15	0.00897
1398.79	0.00915
1408.44	0.01451
1418.09	0.03307
1427.73	0.02245
1437.38	0.02112
1447.03	0.03032
1456.67	0.02679
1466.32	0.03777
1475.97	0.04313
1485.61	0.05764
1495.26	0.04942
1504.91	0.12199
1514.55	0.18332
1524.2	0.0503
1533.85	0.02031
1543.49	0.01836
1553.14	0.02185
1562.79	0.03661
1572.43	0.09344
1582.08	0.14916
1591.73	0.19301
1601.37	0.17111
1611.02	0.13267
1620.67	0.07771
1630.31	0.11982
1639.96	0.10269
1649.6	0.04275
1659.25	0.0255
1668.9	0.01686
1678.54	0.01149
1688.19	0.00911
1697.84	0.00839
1707.48	0.00788
1717.13	0.00753
1726.78	0.00734
1736.42	0.00691
1746.07	0.00662
1755.72	0.00664
1765.36	0.00714
1775.01	0.0077
1784.66	0.00635
1794.3	0.005
1803.95	0.00491
1813.6	0.0047
1823.24	0.00469
1832.89	0.00498
1842.54	0.00533
1852.18	0.00581
1861.83	0.00592
1871.47	0.00612
1881.12	0.00612
1890.77	0.00552
1900.41	0.0051
1910.06	0.00529
1919.71	0.00607
1929.35	0.00736
1939	0.00768
1948.65	0.00638
1958.29	0.0036357
1967.94	0.0033945
1977.59	0.0037602
1987.23	0.00445
1996.88	0.00532
2006.53	0.00581
2016.17	0.00643
2025.82	0.00621
2035.47	0.00605
2045.11	0.00628
2054.76	0.00672
2064.41	0.00694
2074.05	0.00649
2083.7	0.00507
2093.35	0.0038839
2102.99	0.0032343
2112.64	0.002956
2122.28	0.002888
2131.93	0.002763
2141.58	0.002474
2151.22	0.002316
2160.87	0.00227
2170.52	0.00228
2180.16	0.00223
2189.81	0.00216
2199.46	0.00217
2209.1	0.00211
2218.75	0.00217
2228.4	0.00213
2238.04	0.00221
2247.69	0.002403
2257.34	0.002739
2266.98	0.003076
2276.63	0.0032224
2286.28	0.003151
2295.92	0.002797
2305.57	0.002881
2315.22	0.002892
2324.86	0.002834
2334.51	0.002912
2344.16	0.0028
2353.8	0.002784
2363.45	0.002633
2373.09	0.002785
2382.74	0.002794
2392.39	0.002483
2402.03	0.002628
2411.68	0.002978
2421.33	0.0031888
2430.97	0.003137
2440.62	0.003125
2450.27	0.003161
2459.91	0.0034119
2469.56	0.0035794
2479.21	0.0035302
2488.85	0.0034822
2498.5	0.0035608
2508.15	0.0035416
2517.79	0.0036526
2527.44	0.003861
2537.09	0.00457
2546.73	0.00556
2556.38	0.00529
2566.03	0.0039851
2575.67	0.00332901
2585.32	0.003094
2594.96	0.002921
2604.61	0.002785
2614.26	0.002617
2623.9	0.002313
2633.55	0.00213
2643.2	0.00208
2652.84	0.00173
2662.49	0.00162
2672.14	0.00154
2681.78	0.00153
2691.43	0.00159
2701.08	0.00167
2710.72	0.00194
2720.37	0.00225
2730.02	0.002325
2739.66	0.002416
2749.31	0.002642
2758.96	0.002938
2768.6	0.003209
2778.25	0.003128
2787.9	0.0035957
2797.54	0.0040469
2807.19	0.00505
2816.84	0.00699
2826.48	0.01029
2836.13	0.01806
2845.77	0.0366
2855.42	0.03074
2865.07	0.02575
2874.71	0.02393
2884.36	0.02032
2894.01	0.01613
2903.65	0.01624
2913.3	0.01965
2922.95	0.02027
2932.59	0.02176
2942.24	0.03134
2951.89	0.03206
2961.53	0.02758
2971.18	0.02075
2980.83	0.01545
2990.47	0.01618
3000.12	0.02444
3009.77	0.04033
3019.41	0.0291
3029.06	0.03039
3038.71	0.03302
3048.35	0.02027
3058	0.02289
3067.64	0.04718
3077.29	0.04897
3086.94	0.0312
3096.58	0.02138
3106.23	0.01213
3115.88	0.00637
3125.52	0.0038966
3135.17	0.002484
3144.82	0.00215
3154.46	0.00194
3164.11	0.00107
3173.76	0.0007
3183.4	0.00075
3193.05	0.00085
3202.7	0.00083
3212.34	0.00102
3221.99	0.00094
3231.64	0.00098
3241.28	0.00141
3250.93	0.0021
3260.58	0.00144
3270.22	0.00066
3279.87	0.00046
3289.52	1e-05
3299.16	0.00025
3308.81	2e-05
3318.45	0.00015
3328.1	0.00018
3337.75	0.00013
3347.39	9e-05
3357.04	0.00021
3366.69	0.00037
3376.33	0.00032
3385.98	0.00033
3395.63	0.0004
3405.27	0.00011
3414.92	0.00035
3424.57	0.00041
3434.21	0.00067
3443.86	0.00051
3453.51	0.0006
3463.15	0.00062
3472.8	0.00062
3482.45	0.00058
3492.09	0.00091
3501.74	0.00084
3511.39	0.00098
3521.03	0.00093
3530.68	0.00114
3540.33	0.00095
3549.97	0.00083
3559.62	0.00107
3569.26	0.00105
3578.91	0.001
3588.56	0.00107
3598.2	0.00119
3607.85	0.00112
3617.5	0.00116
3627.14	0.00121
3636.79	0.00116
3646.44	0.00139
3656.08	0.00142
3665.73	0.00143
3675.38	0.00148
3685.02	0.00156
3694.67	0.0016
3704.32	0.00162
3713.96	0.00152
3723.61	0.00135
3733.26	0.00139
3742.9	0.00139
3752.55	0.00143
3762.2	0.00126
3771.84	0.0014
3781.49	0.00132
3791.13	0.00143
3800.78	0.00149
3810.43	0.00139
3820.07	0.00149
3829.72	0.00147
3839.37	0.00138
3849.01	0.00143
3858.66	0.00156
3868.31	0.00159
3877.95	0.00156
3887.6	0.0018
3897.25	0.00159
3906.89	0.00152
3916.54	0.00147
3926.19	0.00144
3935.83	0.00142
3945.48	0.00155
3955.13	0.00152
3964.77	0.00167
3974.42	0.00165
3984.07	0.00162
3993.71	0.0015
