Infrared Spectrum: 4-Amino-4'-hydroxystilbene
Formula: C 14 H 13 N O
CAS: 836-44-2
State: gas
Origin: EPA-IR VAPOR PHASE LIBRARY
1/CM	ABSORBANCE
549.8	0.002801
559.445	0.001961
569.09	0.002311
578.734	0.002061
588.379	0.002281
598.024	0.001911
607.669	0.001971
617.313	0.002321
626.958	0.002431
636.603	0.003741
646.248	0.006141
655.893	0.007371
665.537	0.006211
675.182	0.005521
684.827	0.004971
694.472	0.003721
704.116	0.003161
713.761	0.002441
723.406	0.002291
733.051	0.002331
742.695	0.002211
752.34	0.002611
761.985	0.003441
771.63	0.003051
781.275	0.002721
790.919	0.003541
800.564	0.005111
810.209	0.007391
819.854	0.010201
829.498	0.009841
839.143	0.007391
848.788	0.004501
858.433	0.002431
868.078	0.002481
877.722	0.002481
887.367	0.002361
897.012	0.001951
906.657	0.001761
916.301	0.001671
925.946	0.001681
935.591	0.002331
945.236	0.003761
954.88	0.005481
964.525	0.004001
974.17	0.002051
983.815	0.001511
993.46	0.001581
1003.1	0.001491
1012.75	0.001701
1022.39	0.001411
1032.04	0.001571
1041.68	0.0011497
1051.33	0.001411
1060.97	0.001461
1070.62	0.002931
1080.26	0.002961
1089.91	0.004011
1099.55	0.004561
1109.2	0.003291
1118.84	0.003131
1128.49	0.003101
1138.13	0.003631
1147.78	0.004171
1157.42	0.008971
1167.07	0.034131
1176.71	0.024261
1186.36	0.010651
1196	0.007621
1205.64	0.006511
1215.29	0.006421
1224.93	0.004501
1234.58	0.005511
1244.22	0.008251
1253.87	0.022951
1263.51	0.019681
1273.16	0.015461
1282.8	0.011531
1292.45	0.003681
1302.09	0.002471
1311.74	0.002491
1321.38	0.003461
1331.03	0.004531
1340.67	0.003551
1350.32	0.001761
1359.96	0.0011855
1369.61	0.0009778
1379.25	0.0010689
1388.9	0.0010287
1398.54	0.0012094
1408.18	0.001331
1417.83	0.002001
1427.47	0.003581
1437.12	0.002941
1446.76	0.001761
1456.41	0.001731
1466.05	0.001801
1475.7	0.001731
1485.34	0.002191
1494.99	0.004821
1504.63	0.016701
1514.28	0.040581
1523.92	0.021011
1533.57	0.005561
1543.21	0.002701
1552.86	0.002301
1562.5	0.002441
1572.15	0.003111
1581.79	0.004471
1591.44	0.006421
1601.08	0.009531
1610.73	0.016271
1620.37	0.019911
1630.01	0.014251
1639.66	0.005641
1649.3	0.003091
1658.95	0.002441
1668.59	0.001811
1678.24	0.001331
1687.88	0.001331
1697.53	0.0010993
1707.17	0.0011388
1716.82	0.0011348
1726.46	0.0009213
1736.11	0.0011941
1745.75	0.001284
1755.4	0.0011816
1765.04	0.001005
1774.69	0.000744
1784.33	0.0008053
1793.98	0.0007849
1803.62	0.0009151
1813.27	0.001024
1822.91	0.0007159
1832.55	0.000725
1842.2	0.0007336
1851.84	0.0007622
1861.49	0.0010055
1871.13	0.0012111
1880.78	0.0010158
1890.42	0.0008491
1900.07	0.0006965
1909.71	0.0006409
1919.36	0.0005998
1929	0.0007693
1938.65	0.0007616
1948.29	0.0005752
1957.94	0.000654
1967.58	0.0007299
1977.23	0.0006789
1986.87	0.0006558
1996.52	0.000639
2006.16	0.000568
2015.81	0.0007144
2025.45	0.0008607
2035.1	0.000774
2044.74	0.0007234
2054.38	0.0006823
2064.03	0.0006511
2073.67	0.0006366
2083.32	0.0005819
2092.96	0.0005053
2102.61	0.0006133
2112.25	0.0006145
2121.9	0.0004999
2131.54	0.00038407
2141.19	0.0004663
2150.83	0.00039435
2160.48	0.0004789
2170.12	0.0004209
2179.77	0.0005031
2189.41	0.0005618
2199.06	0.0004285
2208.7	0.0004492
2218.35	0.0002676
2227.99	0.00044
2237.64	0.00032482
2247.28	0.0004051
2256.92	0.0006077
2266.57	0.0004776
2276.21	0.0005453
2285.86	0.0004999
2295.5	0.0005127
2305.15	0.0003571
2314.79	0.0005392
2324.44	0.0004613
2334.08	0.0005986
2343.73	0.0006361
2353.37	0.0005716
2363.02	0.0006115
2372.66	0.0005846
2382.31	0.0005242
2391.95	0.0005831
2401.6	0.0005908
2411.24	0.0005646
2420.89	0.0007077
2430.53	0.0008648
2440.18	0.0006673
2449.82	0.0004937
2459.47	0.0006055
2469.11	0.0006125
2478.75	0.0004971
2488.4	0.0003288
2498.04	0.0006479
2507.69	0.0004075
2517.33	0.0005407
2526.98	0.0006202
2536.62	0.0006726
2546.27	0.0005691
2555.91	0.0005213
2565.56	0.00037334
2575.2	0.0005372
2584.85	0.0004442
2594.49	0.00035556
2604.14	0.0004356
2613.78	0.00035857
2623.43	0.0004118
2633.07	0.0004965
2642.72	0.0005059
2652.36	0.0004461
2662.01	0.0004248
2671.65	0.0002761
2681.29	0.0005586
2690.94	0.0004077
2700.58	0.0004379
2710.23	0.0005183
2719.87	0.000310176
2729.52	0.0004219
2739.16	0.0004286
2748.81	0.0004282
2758.45	0.00039951
2768.1	0.0005285
2777.74	0.00036023
2787.39	0.00031895
2797.03	0.0002759
2806.68	0.0002595
2816.32	0.0004304
2825.97	0.0004472
2835.61	0.0004447
2845.26	0.0004674
2854.9	0.0004785
2864.55	0.0005534
2874.19	0.0005595
2883.84	0.000512
2893.48	0.0005497
2903.12	0.0004439
2912.77	0.0004292
2922.41	0.0005652
2932.06	0.0006078
2941.7	0.0009935
2951.35	0.0007323
2960.99	0.0007681
2970.64	0.0008241
2980.28	0.001169
2989.93	0.002051
2999.57	0.003381
3009.22	0.005091
3018.86	0.006641
3028.51	0.011731
3038.15	0.008881
3047.8	0.004551
3057.44	0.004131
3067.09	0.003491
3076.73	0.002671
3086.38	0.001931
3096.02	0.001491
3105.67	0.0012084
3115.31	0.0009773
3124.95	0.0008702
3134.6	0.0006843
3144.24	0.000585
3153.89	0.0005492
3163.53	0.0006095
3173.18	0.00039538
3182.82	0.00036845
3192.47	0.00040047
3202.11	0.0005977
3211.76	0.0002865
3221.4	0.0005477
3231.05	0.00039581
3240.69	0.000192
3250.34	0.0004929
3259.98	0.00038753
3269.63	0.00034484
3279.27	0.00036183
3288.92	0.00034091
3298.56	0.0002316
3308.21	0.00031526
3317.85	0.00038216
3327.49	0.0004867
3337.14	0.0006766
3346.78	0.0005465
3356.43	0.0004819
3366.07	0.00038423
3375.72	0.0006102
3385.36	0.0008075
3395.01	0.001501
3404.65	0.002081
3414.3	0.002471
3423.94	0.001601
3433.59	0.0007578
3443.23	0.0002795
3452.88	0.000592
3462.52	0.0007446
3472.17	0.0009348
3481.81	0.0009718
3491.46	0.0011898
3501.1	0.0010634
3510.75	0.0009345
3520.39	0.0008855
3530.04	0.0003425
3539.68	0.00034485
3549.32	0.00019
3558.97	0.0002849
3568.61	0.00033949
3578.26	0.0004368
3587.9	0.000561
3597.55	0.000185
3607.19	0.0007315
3616.84	0.000691
3626.48	0.001431
3636.13	0.002631
3645.77	0.010171
3655.42	0.011431
3665.06	0.001661
3674.71	0.001032
3684.35	0.0007156
3694	0.0005176
3703.64	0.000125
3713.29	0.0004369
3722.93	0.000305947
3732.58	0.0004676
3742.22	0.0002556
3751.86	0.0004951
3761.51	0.0004079
3771.15	0.0002454
3780.8	0.0002631
3790.44	0.0005369
3800.09	0.000178
3809.73	0.00029232
3819.38	0.0005094
3829.02	0.000422
3838.67	0.00036141
3848.31	0.0007596
3857.96	0.0006895
3867.6	0.0004775
3877.25	0.0005541
3886.89	0.0005815
3896.54	0.0003119
3906.18	0.0004858
3915.83	0.00038565
3925.47	0.0004488
3935.12	0.00031742
3944.76	0.00037806
3954.41	0.000152
3964.05	0.00031143
3973.69	0.00031226
3983.34	0.000446
3992.98	0
