Infrared Spectrum: 4-Nitrodiphenylamine
Formula: C 12 H 10 N 2 O 2
CAS: 836-30-6
State: gas
Origin: EPA-IR VAPOR PHASE LIBRARY
1/CM	ABSORBANCE
551.7	0.0024095
563.274	0.0024495
574.848	0.0029595
586.421	0.0029095
597.995	0.0032295
609.569	0.0039695
621.143	0.0037895
632.717	0.0041195
644.291	0.0042695
655.864	0.0051395
667.438	0.0062695
679.012	0.0102095
690.586	0.0154195
702.16	0.0137395
713.734	0.0088195
725.307	0.0088395
736.881	0.0153295
748.455	0.0262495
760.029	0.0132095
771.603	0.0060595
783.177	0.0040195
794.75	0.0034195
806.324	0.0044395
817.898	0.0071295
829.472	0.0133795
841.046	0.0211395
852.619	0.0169195
864.193	0.0094595
875.767	0.0129895
887.341	0.0040095
898.915	0.0025295
910.489	0.0021195
922.062	0.0018095
933.636	0.0017595
945.21	0.0019495
956.784	0.0019095
968.358	0.0018395
979.932	0.0017495
991.505	0.0015195
1003.08	0.0019295
1014.65	0.0023395
1026.23	0.0040395
1037.8	0.0022195
1049.37	0.0018395
1060.95	0.0028695
1072.52	0.0039295
1084.1	0.0049395
1095.67	0.0075495
1107.24	0.0196795
1118.82	0.0194895
1130.39	0.0046795
1141.97	0.0027095
1153.54	0.0029895
1165.11	0.0052195
1176.69	0.0147495
1188.26	0.0102195
1199.83	0.0052095
1211.41	0.0058195
1222.98	0.0074295
1234.56	0.0112195
1246.13	0.0205795
1257.7	0.0186695
1269.28	0.0180595
1280.85	0.0256895
1292.42	0.0465395
1304	0.0720695
1315.57	0.0660695
1327.15	0.0813395
1338.72	0.0981595
1350.29	0.10837
1361.87	0.0440695
1373.44	0.0201295
1385.02	0.0125995
1396.59	0.0119495
1408.16	0.0082495
1419.74	0.0058195
1431.31	0.0061795
1442.88	0.0083695
1454.46	0.0104695
1466.03	0.0128195
1477.61	0.0201295
1489.18	0.0524095
1500.75	0.11949
1512.33	0.0830095
1523.9	0.0577695
1535.48	0.0604195
1547.05	0.0436495
1558.62	0.0263095
1570.2	0.0327295
1581.77	0.0801195
1593.34	0.1132
1604.92	0.0704795
1616.49	0.0283295
1628.07	0.0115395
1639.64	0.0073895
1651.21	0.0049195
1662.79	0.0036595
1674.36	0.0028295
1685.93	0.0022395
1697.51	0.0019295
1709.08	0.0019795
1720.66	0.0019695
1732.23	0.0019795
1743.8	0.0020795
1755.38	0.0024595
1766.95	0.0026195
1778.53	0.0023895
1790.1	0.0020195
1801.67	0.0016395
1813.25	0.0014295
1824.82	0.0013695
1836.39	0.0013795
1847.97	0.0014195
1859.54	0.0015395
1871.12	0.0016295
1882.69	0.0018995
1894.26	0.0021195
1905.84	0.0021895
1917.41	0.0019095
1928.99	0.0018195
1940.56	0.0016895
1952.13	0.0015795
1963.71	0.0011795
1975.28	0.000981
1986.85	0.0010841
1998.43	0.000997
2010	0.0009441
2021.58	0.0009157
2033.15	0.0007644
2044.72	0.0007545
2056.3	0.0007657
2067.87	0.0008174
2079.44	0.000815
2091.02	0.0008908
2102.59	0.0009099
2114.17	0.0009029
2125.74	0.0007834
2137.31	0.000739
2148.89	0.0006696
2160.46	0.0006262
2172.04	0.0006036
2183.61	0.0006025
2195.18	0.0005566
2206.76	0.0005721
2218.33	0.0006763
2229.9	0.0006802
2241.48	0.0005133
2253.05	0.0004797
2264.63	0.0004322
2276.2	0.0005234
2287.77	0.0005318
2299.35	0.0006715
2310.92	0.0007425
2322.5	0.0007721
2334.07	0.0007634
2345.64	0.0007754
2357.22	0.000784
2368.79	0.0006899
2380.36	0.0006932
2391.94	0.0006298
2403.51	0.0006382
2415.09	0.0007523
2426.66	0.0008415
2438.23	0.0010995
2449.81	0.0014595
2461.38	0.0015995
2472.96	0.0013595
2484.53	0.0012295
2496.1	0.0011095
2507.68	0.0012295
2519.25	0.0013395
2530.82	0.0014795
2542.4	0.0016195
2553.97	0.0015295
2565.55	0.0016295
2577.12	0.0013795
2588.69	0.0011295
2600.27	0.0009635
2611.84	0.000971
2623.41	0.0009151
2634.99	0.00091
2646.56	0.0007107
2658.14	0.0005973
2669.71	0.0005414
2681.28	0.0005642
2692.86	0.0006869
2704.43	0.000784
2716.01	0.0007493
2727.58	0.0007643
2739.15	0.0006466
2750.73	0.0005988
2762.3	0.0004979
2773.87	0.00058
2785.45	0.0005947
2797.02	0.0006632
2808.6	0.0007318
2820.17	0.0007694
2831.74	0.0010702
2843.32	0.0012195
2854.89	0.0013595
2866.47	0.0014395
2878.04	0.0014195
2889.61	0.0013095
2901.19	0.0011495
2912.76	0.0010813
2924.33	0.0011595
2935.91	0.0013695
2947.48	0.0011995
2959.06	0.0009725
2970.63	0.0006772
2982.2	0.0008145
2993.78	0.0009748
3005.35	0.0014895
3016.92	0.0029995
3028.5	0.0056995
3040.07	0.0082095
3051.65	0.0075495
3063.22	0.0082295
3074.79	0.0093895
3086.37	0.0082695
3097.94	0.0048495
3109.52	0.0027495
3121.09	0.0013295
3132.66	0.0007014
3144.24	0.0004641
3155.81	0.0002895
3167.38	0.0003475
3178.96	0.0003911
3190.53	0.0004501
3202.11	0.0006959
3213.68	0.0005269
3225.25	0.0003054
3236.83	0.0002256
3248.4	0.00012346
3259.98	0.00013844
3271.55	0.0002118
3283.12	0.00013613
3294.7	0.00016047
3306.27	0.0002122
3317.84	0.0002625
3329.42	0.0002312
3340.99	0.0002275
3352.57	0.00017981
3364.14	0.000281
3375.71	0.0003268
3387.29	0.0005496
3398.86	0.0009372
3410.43	0.0015695
3422.01	0.0034195
3433.58	0.0059395
3445.16	0.0064295
3456.73	0.0037695
3468.3	0.0016295
3479.88	0.0006854
3491.45	0.0004859
3503.03	0.0003784
3514.6	0.0002869
3526.17	0.0003015
3537.75	0.0002014
3549.32	9.225e-05
3560.89	0.00011333
3572.47	0.00017021
3584.04	0.00011011
3595.62	9.8483e-05
3607.19	0.0001376
3618.76	0.0001562
3630.34	0.00013638
3641.91	0.0001966
3653.49	0.0003741
3665.06	0.0001958
3676.63	0.0002634
3688.21	0.0001162
3699.78	0.0002257
3711.35	0.0002036
3722.93	0.0002335
3734.5	0.00015786
3746.08	0.00016107
3757.65	0.00015584
3769.22	6.35e-05
3780.8	0.00018671
3792.37	0.00010008
3803.94	5.88e-05
3815.52	7.52e-05
3827.09	0.00011529
3838.67	0
3850.24	0.00010445
3861.81	0.00015198
3873.39	0.000139
3884.96	5.57e-05
3896.54	0.00013283
3908.11	0.00012572
3919.68	0.0001913
3931.26	0.0002293
3942.83	0.00012251
3954.4	0.0001808
3965.98	0.00014513
3977.55	0.00014
3989.13	0.00017266
4000.7	0.0001998
