Infrared Spectrum: N-(2-HYDROXYETHYL) Alpha,Alpha-DICHLOROPROPIONAMIDE
Formula: C5 H9 Cl2 N O2
CAS: 83704-00-1
Class: COBLENTZ
Instrument: Not specified, most likely a prism, grating, or hybrid spectrometer.
Sampling: TRANSMISSION
Path length: FILM BETWEEN SALT PLATES
Resolution: 4
Origin: DOW CHEMICAL COMPANY
MICROMETERS	TRANSMITTANCE
2.027	0.816
2.06808	0.816
2.10916	0.81
2.15023	0.814
2.19131	0.816
2.23239	0.809
2.27347	0.814
2.31454	0.819
2.35562	0.817
2.3967	0.817
2.43778	0.812
2.47885	0.817
2.51993	0.819
2.56101	0.823
2.60209	0.823
2.64316	0.819
2.68424	0.805
2.72532	0.762
2.7664	0.687
2.80747	0.494
2.84855	0.34
2.88963	0.231
2.93071	0.201
2.97178	0.201
3.01286	0.3
3.05394	0.448
3.09502	0.589
3.13609	0.676
3.17717	0.706
3.21825	0.702
3.25933	0.709
3.3004	0.697
3.34148	0.599
3.38256	0.489
3.42364	0.575
3.46471	0.601
3.50579	0.718
3.54687	0.752
3.58795	0.769
3.62902	0.786
3.6701	0.798
3.71118	0.807
3.75226	0.812
3.79333	0.814
3.83441	0.816
3.87549	0.819
3.91657	0.821
3.95764	0.819
3.99872	0.821
4.0398	0.823
4.08088	0.824
4.12195	0.833
4.16303	0.836
4.20411	0.835
4.24519	0.833
4.28626	0.836
4.32734	0.836
4.36842	0.836
4.4095	0.836
4.45057	0.84
4.49165	0.84
4.53273	0.838
4.57381	0.838
4.61488	0.833
4.65596	0.833
4.69704	0.833
4.73812	0.833
4.77919	0.833
4.82027	0.835
4.86135	0.836
4.90243	0.838
4.9435	0.838
4.98458	0.836
5.02566	0.833
5.06674	0.835
5.10781	0.835
5.14889	0.833
5.18997	0.835
5.23105	0.836
5.27212	0.833
5.3132	0.831
5.35428	0.831
5.39536	0.831
5.43643	0.828
5.47751	0.823
5.51859	0.817
5.55967	0.807
5.60074	0.793
5.64182	0.771
5.6829	0.749
5.72398	0.728
5.76505	0.692
5.80613	0.613
5.84721	0.455
5.88829	0.213
5.92936	0.072
5.97044	0.06
6.01152	0.176
6.0526	0.501
6.09367	0.608
6.13475	0.67
6.17583	0.697
6.21691	0.716
6.25798	0.682
6.29906	0.64
6.34014	0.567
6.38122	0.438
6.42229	0.302
6.46337	0.187
6.50445	0.109
6.54553	0.109
6.5866	0.195
6.62768	0.35
6.66876	0.508
6.70984	0.596
6.75091	0.57
6.79199	0.53
6.83307	0.501
6.87415	0.438
6.91522	0.403
6.9563	0.438
6.99738	0.479
7.03846	0.53
7.07953	0.551
7.12061	0.575
7.16169	0.577
7.20277	0.503
7.24384	0.422
7.28492	0.477
7.326	0.503
7.36708	0.534
7.40815	0.577
7.44923	0.611
7.49031	0.62
7.53139	0.609
7.57247	0.608
7.61354	0.601
7.65462	0.577
7.6957	0.53
7.73678	0.486
7.77785	0.446
7.81893	0.434
7.86001	0.46
7.90109	0.498
7.94216	0.536
7.98324	0.579
8.02432	0.611
8.0654	0.613
8.10647	0.591
8.14755	0.579
8.18863	0.572
8.22971	0.573
8.27078	0.608
8.31186	0.647
8.35294	0.695
8.39402	0.719
8.43509	0.725
8.47617	0.73
8.51725	0.726
8.55833	0.716
8.5994	0.682
8.64048	0.635
8.68156	0.525
8.72264	0.47
8.76371	0.486
8.80479	0.553
8.84587	0.599
8.88695	0.616
8.92802	0.597
8.9691	0.558
9.01018	0.51
9.05126	0.438
9.09233	0.398
9.13341	0.384
9.17449	0.352
9.21557	0.274
9.25664	0.201
9.29772	0.151
9.3388	0.115
9.37988	0.118
9.42095	0.176
9.46203	0.207
9.50311	0.268
9.54419	0.328
9.58526	0.367
9.62634	0.398
9.66742	0.426
9.7085	0.487
9.74957	0.548
9.79065	0.615
9.83173	0.658
9.87281	0.704
9.91388	0.731
9.95496	0.754
9.99604	0.762
10.0371	0.773
10.0782	0.781
10.1193	0.792
10.1603	0.797
10.2014	0.802
10.2425	0.805
10.2836	0.807
10.3247	0.81
10.3657	0.812
10.4068	0.812
10.4479	0.812
10.489	0.81
10.53	0.805
10.5711	0.797
10.6122	0.773
10.6533	0.742
10.6944	0.728
10.7354	0.726
10.7765	0.73
10.8176	0.733
10.8587	0.738
10.8997	0.749
10.9408	0.756
10.9819	0.761
11.023	0.764
11.0641	0.761
11.1051	0.752
11.1462	0.745
11.1873	0.743
11.2284	0.749
11.2694	0.754
11.3105	0.757
11.3516	0.759
11.3927	0.759
11.4338	0.762
11.4748	0.768
11.5159	0.768
11.557	0.769
11.5981	0.768
11.6391	0.766
11.6802	0.761
11.7213	0.752
11.7624	0.747
11.8034	0.733
11.8445	0.718
11.8856	0.704
11.9267	0.699
11.9678	0.704
12.0088	0.713
12.0499	0.726
12.091	0.737
12.1321	0.747
12.1731	0.75
12.2142	0.75
12.2553	0.747
12.2964	0.74
12.3375	0.726
12.3785	0.713
12.4196	0.692
12.4607	0.67
12.5018	0.639
12.5428	0.596
12.5839	0.556
12.625	0.524
12.6661	0.498
12.7072	0.487
12.7482	0.489
12.7893	0.496
12.8304	0.508
12.8715	0.525
12.9125	0.548
12.9536	0.567
12.9947	0.587
13.0358	0.604
13.0769	0.618
13.1179	0.627
13.159	0.628
13.2001	0.628
13.2412	0.627
13.2822	0.623
13.3233	0.613
13.3644	0.606
13.4055	0.599
13.4466	0.589
13.4876	0.579
13.5287	0.568
13.5698	0.56
13.6109	0.544
13.6519	0.525
13.693	0.503
13.7341	0.482
13.7752	0.463
13.8162	0.438
13.8573	0.414
13.8984	0.398
13.9395	0.388
13.9806	0.378
14.0216	0.388
14.0627	0.407
14.1038	0.42
14.1449	0.434
14.1859	0.441
14.227	0.446
14.2681	0.446
14.3092	0.441
14.3503	0.432
14.3913	0.427
14.4324	0.417
14.4735	0.408
14.5146	0.4
14.5556	0.39
14.5967	0.379
14.6378	0.367
14.6789	0.353
14.72	0.343
14.761	0.331
14.8021	0.319
14.8432	0.309
14.8843	0.293
14.9253	0.283
14.9664	0.269
15.0075	0.254
15.0486	0.243
15.0897	0.228
15.1307	0.218
15.1718	0.204
15.2129	0.195
15.254	0.187
15.295	0.176
15.3361	0.173
15.3772	0.17
15.4183	0.168
15.4593	0.168
15.5004	0.166
15.5415	0.168
15.5826	0.17
15.6237	0.17
15.6647	0.171
15.7058	0.173
15.7469	0.176
15.788	0.178
