Infrared Spectrum: 4-Benzyloxyphenylacetonitrile
Formula: C 15 H 13 N O
CAS: 838-96-0
State: gas
Origin: EPA-IR VAPOR PHASE LIBRARY
1/CM	ABSORBANCE
551.7	0.00374
563.274	0.00379
574.848	0.00384
586.421	0.00372
597.995	0.00413
609.569	0.00524
621.143	0.00548
632.717	0.00392
644.291	0.0033
655.864	0.00317
667.438	0.00478
679.012	0.00859
690.586	0.01523
702.16	0.01541
713.734	0.01303
725.307	0.01651
736.881	0.01713
748.455	0.01291
760.029	0.00925
771.603	0.00671
783.177	0.00618
794.75	0.00846
806.324	0.01258
817.898	0.0158
829.472	0.01377
841.046	0.0095
852.619	0.00812
864.193	0.00636
875.767	0.00447
887.341	0.00446
898.915	0.00552
910.489	0.00562
922.062	0.00456
933.636	0.00413
945.21	0.00427
956.784	0.0048
968.358	0.00632
979.932	0.00975
991.505	0.01473
1003.08	0.02093
1014.65	0.02914
1026.23	0.02972
1037.8	0.01788
1049.37	0.00925
1060.95	0.00591
1072.52	0.00519
1084.1	0.0046
1095.67	0.0046
1107.24	0.00543
1118.82	0.00536
1130.39	0.00383
1141.97	0.00349
1153.54	0.00486
1165.11	0.01304
1176.69	0.03591
1188.26	0.0154
1199.83	0.01742
1211.41	0.03789
1222.98	0.06737
1234.56	0.07365
1246.13	0.0772
1257.7	0.04815
1269.28	0.03321
1280.85	0.02884
1292.42	0.02341
1304	0.01843
1315.57	0.0142
1327.15	0.01024
1338.72	0.00842
1350.29	0.00672
1361.87	0.00785
1373.44	0.01211
1385.02	0.0107
1396.59	0.00492
1408.16	0.00483
1419.74	0.00716
1431.31	0.01116
1442.88	0.0082
1454.46	0.01065
1466.03	0.01293
1477.61	0.00919
1489.18	0.01327
1500.75	0.04325
1512.33	0.10291
1523.9	0.02805
1535.48	0.00928
1547.05	0.00576
1558.62	0.00552
1570.2	0.00693
1581.77	0.01087
1593.34	0.01271
1604.92	0.01974
1616.49	0.02189
1628.07	0.00819
1639.64	0.00421
1651.21	0.00307
1662.79	0.00244
1674.36	0.00212
1685.93	0.00195
1697.51	0.0019
1709.08	0.00199
1720.66	0.00211
1732.23	0.00239
1743.8	0.00274
1755.38	0.00277
1766.95	0.00241
1778.53	0.00228
1790.1	0.0025
1801.67	0.00278
1813.25	0.00216
1824.82	0.00201
1836.39	0.0021
1847.97	0.00243
1859.54	0.00287
1871.12	0.00298
1882.69	0.00295
1894.26	0.00265
1905.84	0.00229
1917.41	0.00204
1928.99	0.00224
1940.56	0.00251
1952.13	0.0027
1963.71	0.00238
1975.28	0.002
1986.85	0.00196
1998.43	0.00197
2010	0.00204
2021.58	0.00208
2033.15	0.00205
2044.72	0.00193
2056.3	0.00183
2067.87	0.00166
2079.44	0.00151
2091.02	0.00147
2102.59	0.00142
2114.17	0.00126
2125.74	0.00113
2137.31	0.00103
2148.89	0.0009379
2160.46	0.0008954
2172.04	0.0008733
2183.61	0.0008973
2195.18	0.0009047
2206.76	0.0009512
2218.33	0.0009839
2229.9	0.00111
2241.48	0.00139
2253.05	0.00192
2264.63	0.00165
2276.2	0.00132
2287.77	0.00115
2299.35	0.00114
2310.92	0.00121
2322.5	0.00128
2334.07	0.00131
2345.64	0.00134
2357.22	0.00124
2368.79	0.00117
2380.36	0.00109
2391.94	0.0011
2403.51	0.00118
2415.09	0.00125
2426.66	0.00126
2438.23	0.00128
2449.81	0.00136
2461.38	0.0014
2472.96	0.00146
2484.53	0.00139
2496.1	0.00131
2507.68	0.00128
2519.25	0.00133
2530.82	0.00139
2542.4	0.00139
2553.97	0.00138
2565.55	0.00131
2577.12	0.00128
2588.69	0.00131
2600.27	0.00125
2611.84	0.00114
2623.41	0.00105
2634.99	0.0009735
2646.56	0.0008648
2658.14	0.0008599
2669.71	0.0008531
2681.28	0.000907
2692.86	0.0009571
2704.43	0.00105
2716.01	0.00116
2727.58	0.00126
2739.15	0.00125
2750.73	0.00116
2762.3	0.00108
2773.87	0.00111
2785.45	0.00122
2797.02	0.00137
2808.6	0.00154
2820.17	0.00195
2831.74	0.0025
2843.32	0.00297
2854.89	0.00321
2866.47	0.00466
2878.04	0.00681
2889.61	0.00763
2901.19	0.00664
2912.76	0.00692
2924.33	0.00894
2935.91	0.00943
2947.48	0.00831
2959.06	0.00747
2970.63	0.00496
2982.2	0.00369
2993.78	0.00388
3005.35	0.0049
3016.92	0.00704
3028.5	0.0127
3040.07	0.01876
3051.65	0.0121
3063.22	0.01185
3074.79	0.01608
3086.37	0.01008
3097.94	0.00757
3109.52	0.00549
3121.09	0.00349
3132.66	0.00208
3144.24	0.00139
3155.81	0.00122
3167.38	0.00123
3178.96	0.00118
3190.53	0.0011
3202.11	0.00102
3213.68	0.000924
3225.25	0.0008849
3236.83	0.0007886
3248.4	0.0007614
3259.98	0.0007427
3271.55	0.0008222
3283.12	0.0007193
3294.7	0.0007354
3306.27	0.0007697
3317.84	0.0007544
3329.42	0.000701
3340.99	0.0007313
3352.57	0.0006821
3364.14	0.000676
3375.71	0.0006586
3387.29	0.0006752
3398.86	0.0006392
3410.43	0.00068
3422.01	0.0006743
3433.58	0.0007475
3445.16	0.0007999
3456.73	0.0007705
3468.3	0.0008027
3479.88	0.0008498
3491.45	0.0008267
3503.03	0.0007898
3514.6	0.0006879
3526.17	0.0007505
3537.75	0.0007455
3549.32	0.0007555
3560.89	0.0007753
3572.47	0.0007459
3584.04	0.0007309
3595.62	0.0007246
3607.19	0.0007524
3618.76	0.0007826
3630.34	0.0008169
3641.91	0.0009067
3653.49	0.0008262
3665.06	0.001
3676.63	0.0009415
3688.21	0.0009295
3699.78	0.0009059
3711.35	0.0007584
3722.93	0.0007778
3734.5	0.0008293
3746.08	0.0007304
3757.65	0.0007669
3769.22	0.0006824
3780.8	0.0007223
3792.37	0.0007887
3803.94	0.0007174
3815.52	0.0007911
3827.09	0.0008941
3838.67	0.0007793
3850.24	0.0008024
3861.81	0.0008994
3873.39	0.000904
3884.96	0.0009184
3896.54	0.0008427
3908.11	0.0008995
3919.68	0.0009419
3931.26	0.0009341
3942.83	0.0008525
3954.4	0.0008035
3965.98	0.0008301
3977.55	0.0007821
3989.13	0.0008172
4000.7	0.0008163
