Infrared Spectrum: BENZOPHENONE, 2-HYDROXY-4-METHOXY-3-METHYL
Formula: C15 H14 O3
CAS: 83803-88-7
State: SOLID (KBr PELLET)
Class: COBLENTZ
Instrument: Not specified, most likely a prism, grating, or hybrid spectrometer.
Sampling: TRANSMISSION
Resolution: 4
Origin: TENNESSEE EASTMAN COMPANY, RESEARCH LABORATORIES
MICROMETERS	TRANSMITTANCE
2.021	0.715
2.06212	0.715
2.10324	0.716
2.14436	0.718
2.18548	0.722
2.2266	0.725
2.26772	0.728
2.30883	0.73
2.34995	0.735
2.39107	0.746
2.43219	0.751
2.47331	0.758
2.51443	0.771
2.55555	0.778
2.59667	0.787
2.63779	0.795
2.67891	0.799
2.72003	0.797
2.76115	0.758
2.80227	0.713
2.84339	0.677
2.8845	0.663
2.92562	0.67
2.96674	0.716
3.00786	0.753
3.04898	0.771
3.0901	0.78
3.13122	0.778
3.17234	0.771
3.21346	0.735
3.25458	0.71
3.2957	0.677
3.33682	0.668
3.37794	0.538
3.41906	0.631
3.46017	0.67
3.50129	0.68
3.54241	0.737
3.58353	0.744
3.62465	0.759
3.66577	0.778
3.70689	0.778
3.74801	0.799
3.78913	0.843
3.83025	0.859
3.87137	0.9
3.91249	0.909
3.95361	0.912
3.99473	0.921
4.03584	0.929
4.07696	0.948
4.11808	0.948
4.1592	0.948
4.20032	0.926
4.24144	0.919
4.28256	0.919
4.32368	0.924
4.3648	0.943
4.40592	0.95
4.44704	0.948
4.48816	0.948
4.52928	0.948
4.57039	0.95
4.61151	0.953
4.65263	0.95
4.69375	0.945
4.73487	0.948
4.77599	0.948
4.81711	0.95
4.85823	0.95
4.89935	0.95
4.94047	0.946
4.98159	0.943
5.02271	0.921
5.06383	0.927
5.10495	0.936
5.14606	0.945
5.18718	0.945
5.2283	0.9
5.26942	0.917
5.31054	0.953
5.35166	0.957
5.39278	0.96
5.4339	0.958
5.47502	0.927
5.51614	0.941
5.55726	0.948
5.59838	0.941
5.6395	0.933
5.68062	0.936
5.72173	0.903
5.76285	0.893
5.80397	0.9
5.84509	0.888
5.88621	0.874
5.92733	0.852
5.96845	0.823
6.00957	0.691
6.05069	0.514
6.09181	0.126
6.13293	0.061
6.17405	0.063
6.21517	0.099
6.25629	0.039
6.2974	0.166
6.33852	0.181
6.37964	0.343
6.42076	0.464
6.46188	0.502
6.503	0.559
6.54412	0.531
6.58524	0.48
6.62636	0.164
6.66748	0.128
6.7086	0.543
6.74972	0.636
6.79084	0.552
6.83196	0.452
6.87307	0.3
6.91419	0.367
6.95531	0.404
6.99643	0.169
7.03755	0.171
7.07867	0.375
7.11979	0.468
7.16091	0.536
7.20203	0.305
7.24315	0.303
7.28427	0.169
7.32539	0.21
7.36651	0.118
7.40762	0.099
7.44874	0.252
7.48986	0.531
7.53098	0.512
7.5721	0.248
7.61322	0.121
7.65434	0.094
7.69546	0.291
7.73658	0.231
7.7777	0.037
7.81882	0.029
7.85994	0.065
7.90106	0.26
7.94218	0.43
7.98329	0.569
8.02441	0.71
8.06553	0.751
8.10665	0.62
8.14777	0.634
8.18889	0.804
8.23001	0.857
8.27113	0.852
8.31225	0.749
8.35337	0.298
8.39449	0.487
8.43561	0.737
8.47673	0.672
8.51785	0.71
8.55896	0.716
8.60008	0.802
8.6412	0.792
8.68232	0.704
8.72344	0.6
8.76456	0.457
8.80568	0.156
8.8468	0.042
8.88792	0.037
8.92904	0.147
8.97016	0.373
9.01128	0.569
9.0524	0.672
9.09352	0.73
9.13463	0.756
9.17575	0.765
9.21687	0.785
9.25799	0.72
9.29911	0.722
9.34023	0.809
9.38135	0.837
9.42247	0.85
9.46359	0.837
9.50471	0.684
9.54583	0.511
9.58695	0.638
9.62807	0.794
9.66918	0.83
9.7103	0.74
9.75142	0.476
9.79254	0.469
9.83366	0.504
9.87478	0.543
9.9159	0.739
9.95702	0.799
9.99814	0.828
10.0393	0.879
10.0804	0.919
10.1215	0.929
10.1626	0.938
10.2037	0.941
10.2449	0.941
10.286	0.945
10.3271	0.95
10.3682	0.953
10.4093	0.953
10.4505	0.953
10.4916	0.951
10.5327	0.951
10.5738	0.955
10.6149	0.958
10.656	0.96
10.6972	0.946
10.7383	0.891
10.7794	0.895
10.8205	0.922
10.8616	0.933
10.9028	0.943
10.9439	0.945
10.985	0.936
11.0261	0.888
11.0672	0.756
11.1084	0.66
11.1495	0.735
11.1906	0.84
11.2317	0.888
11.2728	0.917
11.314	0.929
11.3551	0.941
11.3962	0.941
11.4373	0.938
11.4784	0.927
11.5196	0.917
11.5607	0.902
11.6018	0.886
11.6429	0.852
11.684	0.811
11.7251	0.756
11.7663	0.684
11.8074	0.547
11.8485	0.415
11.8896	0.296
11.9307	0.288
11.9719	0.307
12.013	0.325
12.0541	0.38
12.0952	0.533
12.1363	0.679
12.1775	0.787
12.2186	0.833
12.2597	0.799
12.3008	0.586
12.3419	0.336
12.3831	0.219
12.4242	0.224
12.4653	0.324
12.5064	0.433
12.5475	0.519
12.5887	0.509
12.6298	0.331
12.6709	0.286
12.712	0.555
12.7531	0.689
12.7942	0.74
12.8354	0.77
12.8765	0.78
12.9176	0.78
12.9587	0.739
12.9998	0.578
13.041	0.331
13.0821	0.226
13.1232	0.397
13.1643	0.713
13.2054	0.833
13.2466	0.885
13.2877	0.912
13.3288	0.927
13.3699	0.933
13.411	0.95
13.4522	0.96
13.4933	0.96
13.5344	0.96
13.5755	0.96
13.6166	0.96
13.6578	0.96
13.6989	0.958
13.74	0.953
13.7811	0.95
13.8222	0.915
13.8634	0.854
13.9045	0.663
13.9456	0.481
13.9867	0.303
14.0278	0.195
14.0689	0.192
14.1101	0.279
14.1512	0.343
14.1923	0.329
14.2334	0.298
14.2745	0.334
14.3157	0.475
14.3568	0.667
14.3979	0.778
14.439	0.842
14.4801	0.876
14.5213	0.888
14.5624	0.886
14.6035	0.843
14.6446	0.756
14.6857	0.665
14.7269	0.632
14.768	0.65
14.8091	0.73
14.8502	0.804
14.8913	0.854
14.9325	0.874
14.9736	0.881
15.0147	0.883
15.0558	0.9
15.0969	0.917
15.138	0.924
15.1792	0.926
15.2203	0.924
15.2614	0.921
15.3025	0.91
15.3436	0.898
15.3848	0.883
15.4259	0.867
15.467	0.849
15.5081	0.83
15.5492	0.799
15.5904	0.77
15.6315	0.718
15.6726	0.663
15.7137	0.59
15.7548	0.533
15.796	0.512
15.8371	0.514
15.8782	0.54
15.9193	0.574
15.9604	0.591
