Infrared Spectrum: HYDRAZINE, 1-(2-NAPHTHOYL)-2-p-TOLUOYL-
Formula: C19 H16 N2 O2
CAS: 83803-95-6
State: SOLID (SPLIT MULL), FLUOROLUBE FOR 3800-1330 CM^-^1, NUJOL FOR 1330-400 CM^-^1
Class: COBLENTZ III
Instrument: DOW KBr FOREPRISM-GRATING
Instrument parameters: BLAZED AT 3.5, 12.0, 20.0 MICRON AND CHANGED AT 5.0, 7.5, 14.9 MICRON
Sampling: TRANSMISSION
Resolution: 2
Origin: DOW CHEMICAL COMPANY
1/CM	TRANSMITTANCE
392.336	0.984
401.179	0.99
410.022	0.994
418.865	0.994
427.708	0.993
436.551	0.993
445.394	0.993
454.237	0.988
463.08	0.85
471.923	0.841
480.767	0.874
489.61	0.962
498.453	0.979
507.296	0.961
516.139	0.921
524.982	0.798
533.825	0.687
542.668	0.842
551.511	0.842
560.354	0.834
569.197	0.823
578.04	0.837
586.883	0.82
595.726	0.859
604.569	0.908
613.412	0.883
622.255	0.875
631.098	0.901
639.941	0.94
648.785	0.948
657.628	0.954
666.471	0.962
675.314	0.973
684.157	0.982
693	0.962
701.843	0.933
710.686	0.879
719.529	0.82
728.372	0.812
737.215	0.827
746.058	0.558
754.901	0.719
763.744	0.75
772.587	0.593
781.43	0.954
790.273	0.929
799.116	0.957
807.959	0.915
816.803	0.669
825.646	0.762
834.489	0.915
843.332	0.881
852.175	0.955
861.018	0.7521
869.861	0.918
878.704	0.859
887.547	0.823
896.39	0.871
905.233	0.81
914.076	0.776
922.919	0.907
931.762	0.918
940.605	0.907
949.448	0.832
958.291	0.8421
967.134	0.901
975.977	0.897
984.821	0.911
993.664	0.924
1002.51	0.921
1011.35	0.877
1020.19	0.911
1029.04	0.897
1037.88	0.908
1046.72	0.907
1055.56	0.886
1064.41	0.882
1073.25	0.886
1082.09	0.877
1090.94	0.854
1099.78	0.841
1108.62	0.832
1117.47	0.776
1126.31	0.81
1135.15	0.843
1144	0.828
1152.84	0.837
1161.68	0.832
1170.52	0.808
1179.37	0.777
1188.21	0.6059
1197.05	0.7611
1205.9	0.727
1214.74	0.779
1223.58	0.752
1232.43	0.6459
1241.27	0.5891
1250.11	0.696
1258.96	0.672
1267.8	0.56
1276.64	0.468
1285.48	0.254
1294.33	0.28
1303.17	0.447
1312.01	0.569
1320.86	0.631
1329.7	0.625
1338.54	0.606
1347.39	0.694
1356.23	0.759
1365.07	0.774
1373.91	0.787
1382.76	0.79
1391.6	0.784
1400.44	0.788
1409.29	0.779
1418.13	0.77
1426.97	0.733
1435.82	0.62
1444.66	0.693
1453.5	0.671
1462.35	0.629
1471.19	0.646
1480.03	0.606
1488.87	0.4819
1497.72	0.2479
1506.56	0.2941
1515.4	0.524
1524.25	0.345
1533.09	0.225
1541.93	0.245
1550.78	0.3571
1559.62	0.57
1568.46	0.544
1577.31	0.5731
1586.15	0.74
1594.99	0.6379
1603.83	0.5119
1612.68	0.352
1621.52	0.1559
1630.36	0.186
1639.21	0.062
1648.05	0.3561
1656.89	0.58
1665.74	0.395
1674.58	0.524
1683.42	0.83
1692.26	0.915
1701.11	0.957
1709.95	0.97
1718.79	0.973
1727.64	0.97
1736.48	0.97
1745.32	0.977
1754.17	0.975
1763.01	0.965
1771.85	0.961
1780.7	0.962
1789.54	0.959
1798.38	0.957
1807.22	0.947
1816.07	0.95
1824.91	0.954
1833.75	0.957
1842.6	0.957
1851.44	0.957
1860.28	0.955
1869.13	0.954
1877.97	0.951
1886.81	0.951
1895.65	0.95
1904.5	0.935
1913.34	0.937
1922.18	0.937
1931.03	0.941
1939.87	0.941
1948.71	0.941
1957.56	0.954
1966.4	0.946
1975.24	0.946
1984.09	0.946
1992.93	0.94
2001.77	0.933
2010.61	0.926
2019.46	0.925
2028.3	0.924
2037.14	0.924
2045.99	0.924
2054.83	0.921
2063.67	0.918
2072.52	0.918
2081.36	0.915
2090.2	0.9101
2099.05	0.907
2107.89	0.904
2116.73	0.903
2125.57	0.901
2134.42	0.9
2143.26	0.897
2152.1	0.896
2160.95	0.893
2169.79	0.89
2178.63	0.8832
2187.48	0.881
2196.32	0.8772
2205.16	0.875
2214	0.874
2222.85	0.8682
2231.69	0.8631
2240.53	0.8601
2249.38	0.857
2258.22	0.8591
2267.06	0.85
2275.91	0.85
2284.75	0.852
2293.59	0.856
2302.44	0.852
2311.28	0.8591
2320.12	0.8591
2328.96	0.853
2337.81	0.856
2346.65	0.856
2355.49	0.856
2364.34	0.8526
2373.18	0.8452
2382.02	0.842
2390.87	0.841
2399.71	0.839
2408.55	0.8393
2417.4	0.839
2426.24	0.839
2435.08	0.839
2443.92	0.839
2452.77	0.839
2461.61	0.841
2470.45	0.8394
2479.3	0.838
2488.14	0.838
2496.98	0.838
2505.83	0.838
2514.67	0.838
2523.51	0.837
2532.35	0.835
2541.2	0.832
2550.04	0.832
2558.88	0.831
2567.73	0.8272
2576.57	0.821
2585.41	0.821
2594.26	0.8203
2603.1	0.819
2611.94	0.817
2620.79	0.816
2629.63	0.814
2638.47	0.813
2647.31	0.812
2656.16	0.8093
2665	0.808
2673.84	0.7998
2682.69	0.796
2691.53	0.795
2700.37	0.7926
2709.22	0.79
2718.06	0.78
2726.9	0.7763
2735.74	0.774
2744.59	0.7693
2753.43	0.7623
2762.27	0.7503
2771.12	0.743
2779.96	0.7373
2788.8	0.73
2797.65	0.7143
2806.49	0.701
2815.33	0.6797
2824.18	0.6697
2833.02	0.662
2841.86	0.6604
2850.7	0.657
2859.55	0.647
2868.39	0.646
2877.23	0.6437
2886.08	0.635
2894.92	0.6297
2903.76	0.6059
2912.61	0.598
2921.45	0.596
2930.29	0.5858
2939.14	0.5722
2947.98	0.5498
2956.82	0.521
2965.66	0.4904
2974.51	0.4518
2983.35	0.4283
2992.19	0.3935
3001.04	0.3793
3009.88	0.374
3018.72	0.3786
3027.57	0.3973
3036.41	0.415
3045.25	0.4277
3054.09	0.4515
3062.94	0.4826
3071.78	0.4983
3080.62	0.5101
3089.47	0.511
3098.31	0.5058
3107.15	0.4924
3116	0.4682
3124.84	0.4419
3133.68	0.4193
3142.53	0.398
3151.37	0.3809
3160.21	0.367
3169.05	0.35
3177.9	0.343
3186.74	0.3225
3195.58	0.304
3204.43	0.299
3213.27	0.3065
3222.11	0.3239
3230.96	0.3555
3239.8	0.3944
3248.64	0.4346
3257.49	0.4929
3266.33	0.5292
3275.17	0.5833
3284.01	0.6172
3292.86	0.6453
3301.7	0.6767
3310.54	0.6983
3319.39	0.7149
3328.23	0.7284
3337.07	0.7404
3345.92	0.7489
3354.76	0.752
3363.6	0.754
3372.44	0.754
3381.29	0.7531
3390.13	0.751
3398.97	0.751
3407.82	0.748
3416.66	0.7476
3425.5	0.745
3434.35	0.745
3443.19	0.743
3452.03	0.7392
3460.88	0.736
3469.72	0.7326
3478.56	0.73
3487.4	0.729
3496.25	0.7266
3505.09	0.725
3513.93	0.723
3522.78	0.7213
3531.62	0.72
3540.46	0.719
3549.31	0.716
3558.15	0.714
3566.99	0.7103
3575.83	0.709
3584.68	0.7077
3593.52	0.705
3602.36	0.704
3611.21	0.703
3620.05	0.7
3628.89	0.696
3637.74	0.6937
3646.58	0.69
3655.42	0.69
3664.27	0.691
3673.11	0.691
3681.95	0.691
3690.79	0.69
3699.64	0.6867
3708.48	0.683
3717.32	0.683
3726.17	0.682
3735.01	0.68
3743.85	0.6797
3752.7	0.678
3761.54	0.6747
3770.38	0.672
3779.23	0.668
3788.07	0.668
3796.91	0.6702
