Infrared Spectrum: Dibenzofuran-2-sulphonic acid
Formula: C 12 H 8 O 4 S
CAS: 83863-63-2
State: gas
Origin: EPA-IR VAPOR PHASE LIBRARY
1/CM	ABSORBANCE
549.8	0.00284
559.445	0.00309
569.09	0.00262
578.734	0.0015372
588.379	0.0016491
598.024	0.0013877
607.669	0.00268
617.313	0.00446
626.958	0.000723
636.603	0.0015807
646.248	0.0011538
655.893	0.0012953
665.537	0.00251
675.182	0.0013271
684.827	0.0009929
694.472	0.0014121
704.116	0.00405
713.761	0.01092
723.406	0.01922
733.051	0.01679
742.695	0.02644
752.34	0.03555
761.985	0.01687
771.63	0.00385
781.275	0.00215
790.919	0.000841
800.564	0.000877
810.209	0.00228
819.854	0.0019662
829.498	0.00702
839.143	0.01017
848.788	0.00706
858.433	0.00824
868.078	0.00669
877.722	0.00253
887.367	0.0017156
897.012	0.0014072
906.657	0.0015381
916.301	0.0013357
925.946	0.00211
935.591	0.0014911
945.236	0.0017332
954.88	0.0013619
964.525	0.00091
974.17	0.000846
983.815	0.0012153
993.46	0.0018349
1003.1	0.00371
1012.75	0.00367
1022.39	0.00421
1032.04	0.00211
1041.68	0.0017939
1051.33	0.00214
1060.97	0.0013865
1070.62	0.00217
1080.26	0.00229
1089.91	0.00252
1099.55	0.00277
1109.2	0.01144
1118.84	0.00822
1128.49	0.00226
1138.13	0.0014102
1147.78	0.00236
1157.42	0.00226
1167.07	0.0017894
1176.71	0.00887
1186.36	0.03531
1196	0.06521
1205.64	0.02744
1215.29	0.0039
1224.93	0.0021
1234.58	0.00288
1244.22	0.00414
1253.87	0.00301
1263.51	0.00212
1273.16	0.00363
1282.8	0.005
1292.45	0.00298
1302.09	0.00442
1311.74	0.00758
1321.38	0.00489
1331.03	0.00279
1340.67	0.00292
1350.32	0.00262
1359.96	0.0015861
1369.61	0.0014687
1379.25	0.0013028
1388.9	0.0014738
1398.54	0.00204
1408.18	0.00361
1417.83	0.00412
1427.47	0.00512
1437.12	0.01286
1446.76	0.02124
1456.41	0.02117
1466.05	0.01696
1475.7	0.01579
1485.34	0.00517
1494.99	0.00361
1504.63	0.0018368
1514.28	0.00185
1523.92	0.0016644
1533.57	0.0012943
1543.21	0.001501
1552.86	0.0016584
1562.5	0.00227
1572.15	0.00364
1581.79	0.00648
1591.44	0.00765
1601.08	0.0053
1610.73	0.00283
1620.37	0.0019531
1630.01	0.0012571
1639.66	0.0014825
1649.3	0.0014173
1658.95	0.0017028
1668.59	0.00215
1678.24	0.0018148
1687.88	0.00204
1697.53	0.0017627
1707.17	0.001551
1716.82	0.0014588
1726.46	0.0014619
1736.11	0.0011586
1745.75	0.0015008
1755.4	0.0017181
1765.04	0.00243
1774.69	0.0026
1784.33	0.0017014
1793.98	0.0014597
1803.62	0.0017871
1813.27	0.0017154
1822.91	0.0012614
1832.55	0.0012412
1842.2	0.0013583
1851.84	0.00228
1861.49	0.0019424
1871.13	0.0013145
1880.78	0.00231
1890.42	0.00276
1900.07	0.0020104
1909.71	0.0013967
1919.36	0.0026
1929	0.00295
1938.65	0.0016541
1948.29	0.0011784
1957.94	0.0013033
1967.58	0.00111183
1977.23	0.0012788
1986.87	0.0011509
1996.52	0.0013332
2006.16	0.00105651
2015.81	0.0015461
2025.45	0.0012597
2035.1	0.0016628
2044.74	0.0015055
2054.38	0.001641
2064.03	0.0015744
2073.67	0.0013636
2083.32	0.0013795
2092.96	0.001144
2102.61	0.0009516
2112.25	0.0012605
2121.9	0.0012712
2131.54	0.0012095
2141.19	0.0012415
2150.83	0.0012836
2160.48	0.0011593
2170.12	0.0009628
2179.77	0.000981
2189.41	0.00112597
2199.06	0.0011583
2208.7	0.0014643
2218.35	0.0013133
2227.99	0.0013385
2237.64	0.0013062
2247.28	0.001219
2256.92	0.0011992
2266.57	0.0013403
2276.21	0.0011933
2285.86	0.0014313
2295.5	0.0013747
2305.15	0.0012419
2314.79	0.0013627
2324.44	0.0012435
2334.08	0.0012081
2343.73	0.0014678
2353.37	0.0012378
2363.02	0.0010098
2372.66	0.0012122
2382.31	0.0013056
2391.95	0.0013001
2401.6	0.0013864
2411.24	0.0013391
2420.89	0.0014377
2430.53	0.0018945
2440.18	0.0016035
2449.82	0.0013136
2459.47	0.0014803
2469.11	0.0016614
2478.75	0.001464
2488.4	0.001316
2498.04	0.0014499
2507.69	0.001609
2517.33	0.0014128
2526.98	0.0013499
2536.62	0.0013835
2546.27	0.0009446
2555.91	0.0013372
2565.56	0.0012855
2575.2	0.00110231
2584.85	0.001471
2594.49	0.0013726
2604.14	0.0013326
2613.78	0.0013361
2623.43	0.0014181
2633.07	0.0015038
2642.72	0.0013358
2652.36	0.0018124
2662.01	0.0012035
2671.65	0.0011697
2681.29	0.0013052
2690.94	0.0013147
2700.58	0.0014646
2710.23	0.0012959
2719.87	0.0009672
2729.52	0.0011768
2739.16	0.0014466
2748.81	0.000899
2758.45	0.0011432
2768.1	0.001448
2777.74	0.00112882
2787.39	0.0011392
2797.03	0.00110738
2806.68	0.0014606
2816.32	0.0015337
2825.97	0.000936
2835.61	0.00106024
2845.26	0.00112272
2854.9	0.0009985
2864.55	0.00113824
2874.19	0.0014035
2883.84	0.0009686
2893.48	0.00111461
2903.12	0.0012797
2912.77	0.0012733
2922.41	0.0011446
2932.06	0.0014262
2941.7	0.0011661
2951.35	0.0014588
2960.99	0.0013925
2970.64	0.0015016
2980.28	0.00106457
2989.93	0.0016961
2999.57	0.000667
3009.22	0.0009566
3018.86	0.00249
3028.51	0.00393
3038.15	0.00513
3047.8	0.00804
3057.44	0.01173
3067.09	0.01162
3076.73	0.01279
3086.38	0.01014
3096.02	0.00718
3105.67	0.00374
3115.31	0.001678
3124.95	0.0016599
3134.6	0.0017143
3144.24	0.0014202
3153.89	0.00104484
3163.53	0.0013375
3173.18	0.0015926
3182.82	0.0017086
3192.47	0.00078
3202.11	0.0017694
3211.76	0.00110136
3221.4	0.0013567
3231.05	0.0013911
3240.69	0.000862
3250.34	0.0009881
3259.98	0.000636
3269.63	0.0014706
3279.27	0.0009418
3288.92	0.000936
3298.56	0.00105132
3308.21	0.000935
3317.85	0.0013633
3327.49	0.00112853
3337.14	0.0012476
3346.78	0.00105441
3356.43	0.0010097
3366.07	0.0009921
3375.72	0.000862
3385.36	0.000878
3395.01	0.001305
3404.65	0.000439
3414.3	0.0013511
3423.94	0.0009922
3433.59	0.0011887
3443.23	0.0012241
3452.88	0.0016574
3462.52	0.000879
3472.17	0.001767
3481.81	0.00105818
3491.46	0.0013091
3501.1	0.0009887
3510.75	0.000673
3520.39	0.0011507
3530.04	0.00106389
3539.68	0.0011453
3549.32	0.0013118
3558.97	0.000921
3568.61	0.000891
3578.26	0.00107798
3587.9	0.000752
3597.55	0.0012238
3607.19	0.0014099
3616.84	0.0009991
3626.48	0.00091
3636.13	0.000887
3645.77	0.0012341
3655.42	0.000925
3665.06	0.000928
3674.71	0.0013853
3684.35	0.0009641
3694	0.00110401
3703.64	0.000572
3713.29	0.0015347
3722.93	0.0014813
3732.58	0.0016068
3742.22	0.000856
3751.86	0.0012965
3761.51	0.0018554
3771.15	0.0014713
3780.8	0.00112727
3790.44	0.000939
3800.09	0.0015359
3809.73	0.0015819
3819.38	0.00104065
3829.02	0.000699
3838.67	0.0017391
3848.31	0.0009843
3857.96	0.000843
3867.6	0.0014313
3877.25	0.00091
3886.89	0.0009854
3896.54	0.001138
3906.18	0.001412
3915.83	0.0013544
3925.47	0.001186
3935.12	0.0016852
3944.76	0.00105272
3954.41	0.0011644
3964.05	0.0011886
3973.69	0.000708
3983.34	0.0014745
3992.98	0.00092
