Infrared Spectrum: 2-Amino-4-iodotoluene
Formula: C 7 H 8 I N
CAS: 83863-33-6
State: gas
Origin: EPA-IR VAPOR PHASE LIBRARY
1/CM	ABSORBANCE
549.8	0.014684
559.445	0.017434
569.09	0.020434
578.734	0.018684
588.379	0.016474
598.024	0.016774
607.669	0.019994
617.313	0.023514
626.958	0.024004
636.603	0.027814
646.248	0.029214
655.893	0.028524
665.537	0.027804
675.182	0.030174
684.827	0.032894
694.472	0.031664
704.116	0.028284
713.761	0.025454
723.406	0.023474
733.051	0.021144
742.695	0.019524
752.34	0.018434
761.985	0.017004
771.63	0.022724
781.275	0.041204
790.919	0.061744
800.564	0.040364
810.209	0.021794
819.854	0.018324
829.498	0.021254
839.143	0.033174
848.788	0.048594
858.433	0.050584
868.078	0.065274
877.722	0.060574
887.367	0.018694
897.012	0.007694
906.657	0.006344
916.301	0.006434
925.946	0.006614
935.591	0.007204
945.236	0.007484
954.88	0.008004
964.525	0.009844
974.17	0.014324
983.815	0.031404
993.46	0.033564
1003.1	0.013504
1012.75	0.008394
1022.39	0.006924
1032.04	0.006014
1041.68	0.006744
1051.33	0.007714
1060.97	0.007804
1070.62	0.005964
1080.26	0.007614
1089.91	0.008924
1099.55	0.008334
1109.2	0.006884
1118.84	0.007074
1128.49	0.007484
1138.13	0.008124
1147.78	0.009364
1157.42	0.009524
1167.07	0.006014
1176.71	0.007944
1186.36	0.017164
1196	0.029024
1205.64	0.014754
1215.29	0.008084
1224.93	0.010964
1234.58	0.012644
1244.22	0.022024
1253.87	0.034414
1263.51	0.035934
1273.16	0.026324
1282.8	0.027774
1292.45	0.020144
1302.09	0.006554
1311.74	0.004394
1321.38	0.004864
1331.03	0.004534
1340.67	0.003864
1350.32	0.004054
1359.96	0.005054
1369.61	0.007584
1379.25	0.015754
1388.9	0.023574
1398.54	0.036914
1408.18	0.044984
1417.83	0.033964
1427.47	0.019604
1437.12	0.016244
1446.76	0.018754
1456.41	0.023374
1466.05	0.030734
1475.7	0.065654
1485.34	0.131154
1494.99	0.115004
1504.63	0.047164
1514.28	0.013804
1523.92	0.009534
1533.57	0.010014
1543.21	0.013084
1552.86	0.023034
1562.5	0.040804
1572.15	0.060304
1581.79	0.066404
1591.44	0.082234
1601.08	0.075184
1610.73	0.075004
1620.37	0.104604
1630.01	0.092814
1639.66	0.049554
1649.3	0.024644
1658.95	0.014714
1668.59	0.010304
1678.24	0.008414
1687.88	0.007774
1697.53	0.007044
1707.17	0.006374
1716.82	0.006004
1726.46	0.005094
1736.11	0.004574
1745.75	0.003564
1755.4	0.002904
1765.04	0.002554
1774.69	0.002684
1784.33	0.002664
1793.98	0.002624
1803.62	0.002604
1813.27	0.002514
1822.91	0.002774
1832.55	0.002854
1842.2	0.003474
1851.84	0.004524
1861.49	0.004164
1871.13	0.002684
1880.78	0.002014
1890.42	0.001814
1900.07	0.001854
1909.71	0.001704
1919.36	0.001644
1929	0.001644
1938.65	0.001664
1948.29	0.001824
1957.94	0.001864
1967.58	0.001574
1977.23	0.001654
1986.87	0.001434
1996.52	0.001584
2006.16	0.001604
2015.81	0.001604
2025.45	0.001494
2035.1	0.001474
2044.74	0.001584
2054.38	0.001404
2064.03	0.001434
2073.67	0.001514
2083.32	0.001364
2092.96	0.0013158
2102.61	0.001454
2112.25	0.001614
2121.9	0.001554
2131.54	0.001704
2141.19	0.001674
2150.83	0.0012642
2160.48	0.0011692
2170.12	0.0010426
2179.77	0.000995
2189.41	0.0011198
2199.06	0.0011394
2208.7	0.0011726
2218.35	0.0010164
2227.99	0.0012961
2237.64	0.0012019
2247.28	0.0011718
2256.92	0.0011264
2266.57	0.0012939
2276.21	0.0012447
2285.86	0.0011462
2295.5	0.0012618
2305.15	0.0012608
2314.79	0.001464
2324.44	0.0013064
2334.08	0.001344
2343.73	0.001534
2353.37	0.001384
2363.02	0.0012773
2372.66	0.001424
2382.31	0.001494
2391.95	0.0010134
2401.6	0.0009875
2411.24	0.0009926
2420.89	0.001117
2430.53	0.0012906
2440.18	0.001494
2449.82	0.001594
2459.47	0.001654
2469.11	0.001334
2478.75	0.001334
2488.4	0.001484
2498.04	0.001524
2507.69	0.001364
2517.33	0.001424
2526.98	0.001494
2536.62	0.001644
2546.27	0.001834
2555.91	0.001854
2565.56	0.001594
2575.2	0.001784
2584.85	0.001384
2594.49	0.000922
2604.14	0.000758
2613.78	0.0005728
2623.43	0.0008059
2633.07	0.0007476
2642.72	0.0008636
2652.36	0.0009391
2662.01	0.001484
2671.65	0.001544
2681.29	0.001674
2690.94	0.001794
2700.58	0.001424
2710.23	0.001494
2719.87	0.001384
2729.52	0.001954
2739.16	0.002894
2748.81	0.002854
2758.45	0.002124
2768.1	0.001504
2777.74	0.001904
2787.39	0.001794
2797.03	0.001924
2806.68	0.001924
2816.32	0.002344
2825.97	0.002904
2835.61	0.003784
2845.26	0.005394
2854.9	0.009674
2864.55	0.016914
2874.19	0.022954
2883.84	0.021534
2893.48	0.017834
2903.12	0.018944
2912.77	0.018624
2922.41	0.023854
2932.06	0.032384
2941.7	0.026244
2951.35	0.016804
2960.99	0.012794
2970.64	0.013574
2980.28	0.016454
2989.93	0.015094
2999.57	0.011104
3009.22	0.012134
3018.86	0.018594
3028.51	0.020944
3038.15	0.015864
3047.8	0.012574
3057.44	0.009244
3067.09	0.009104
3076.73	0.010654
3086.38	0.009884
3096.02	0.006204
3105.67	0.003574
3115.31	0.002254
3124.95	0.001854
3134.6	0.001394
3144.24	0.0010772
3153.89	0.001494
3163.53	0.0011749
3173.18	0.0010729
3182.82	0.001474
3192.47	0.001384
3202.11	0.001454
3211.76	0.001714
3221.4	0.001404
3231.05	0.001634
3240.69	0.001824
3250.34	0.001434
3259.98	0.0010783
3269.63	0.0009431
3279.27	0.0005676
3288.92	0.0003096
3298.56	0.000141
3308.21	0.000331885
3317.85	0.0006966
3327.49	0.0005274
3337.14	0.00041701
3346.78	0.0002936
3356.43	0.0006774
3366.07	0.0007073
3375.72	0.0012013
3385.36	0.002654
3395.01	0.006434
3404.65	0.013334
3414.3	0.017124
3423.94	0.011144
3433.59	0.004964
3443.23	0.002464
3452.88	0.001994
3462.52	0.002324
3472.17	0.003714
3481.81	0.008214
3491.46	0.015394
3501.1	0.014874
3510.75	0.008904
3520.39	0.004214
3530.04	0.002154
3539.68	0.001534
3549.32	0.000959
3558.97	0.0007301
3568.61	0.00034479
3578.26	0.0007622
3587.9	0.0005098
3597.55	0
3607.19	0.0002376
3616.84	0.0006367
3626.48	0.000197
3636.13	0.0005941
3645.77	0.0005496
3655.42	0.0006738
3665.06	0.0003025
3674.71	0.000202
3684.35	0.00036912
3694	0.0005012
3703.64	0.0003086
3713.29	0.0006456
3722.93	0.0004807
3732.58	0.00038903
3742.22	0.0006378
3751.86	0.0006429
3761.51	0.0006775
3771.15	0.0005457
3780.8	0.0004301
3790.44	0.0005932
3800.09	0.000455
3809.73	0.0005729
3819.38	0.0005514
3829.02	0.00035963
3838.67	0.0007689
3848.31	0.0008489
3857.96	0.0010845
3867.6	0.0011126
3877.25	0.000871
3886.89	0.0009421
3896.54	0.0010281
3906.18	0.0012302
3915.83	0.000895
3925.47	0.0011182
3935.12	0.001364
3944.76	0.0009792
3954.41	0.001394
3964.05	0.0011391
3973.69	0.0010364
3983.34	0.0006784
3992.98	0.0005348
