Infrared Spectrum: 2-Methyl-3-decanol
Formula: C 11 H 24 O
CAS: 83909-79-9
State: gas
Instrument: HP-GC/MS/IRD
Origin: NIST Mass Spectrometry Data Center
1/CM	ABSORBANCE
550	0.0001702
562	0.000138
574	4.6e-05
586	0.0001978
598	0.0002576
610	0.0002346
622	0.0002208
634	9.2e-05
646	6.44e-05
658	0.0001472
670	0.0001794
682	0.0002392
694	0.0002714
706	0.00046
718	0.0006624
730	0.000598
742	0.0005014
754	0.0004922
766	0.0004462
778	0.0004922
790	0.0004922
802	0.000483
814	0.0006072
826	0.0006854
838	0.0006302
850	0.000644
862	0.0007268
874	0.0009062
886	0.0010902
898	0.0011178
910	0.0011178
922	0.0012282
934	0.0014536
946	0.0019136
958	0.002714
970	0.0039606
982	0.0050416
994	0.0045954
1006	0.0037812
1018	0.0036248
1030	0.0038226
1042	0.0040618
1054	0.0035512
1066	0.0027784
1078	0.0024196
1090	0.0023782
1102	0.0025024
1114	0.0024748
1126	0.0024748
1138	0.0025346
1150	0.0022264
1162	0.0021804
1174	0.0021298
1186	0.0018538
1198	0.0018354
1210	0.0020332
1222	0.0023276
1234	0.0025208
1246	0.00253
1258	0.0024518
1270	0.002277
1282	0.0021436
1294	0.0020884
1306	0.0020608
1318	0.0018492
1330	0.001817
1342	0.0021896
1354	0.0028428
1366	0.0037996
1378	0.0045908
1390	0.0046644
1402	0.0029578
1414	0.0018446
1426	0.0016836
1438	0.0023782
1450	0.0038732
1462	0.0054924
1474	0.0048024
1486	0.0023
1498	0.001173
1510	0.0007406
1522	0.0005152
1534	0.0004094
1546	0.000322
1558	0.0002484
1570	0.0002162
1582	0.0002116
1594	0.0001932
1606	0.0001702
1618	0.0001518
1630	0.0001518
1642	0.000161
1654	0.0001334
1666	0.0001012
1678	9.2e-05
1690	6.9e-05
1702	6.44e-05
1714	5.52e-05
1726	2.76e-05
1738	1.84e-05
1750	3.22e-05
1762	9.2e-06
1774	2.3e-05
1786	1.38e-05
1798	1.38e-05
1810	1.38e-05
1822	9.2e-06
1834	3.22e-05
1846	9.2e-06
1858	4.6e-06
1870	9.2e-06
1882	1.84e-05
1894	3.22e-05
1906	2.3e-05
1918	2.3e-05
1930	2.3e-05
1942	2.3e-05
1954	2.3e-05
1966	2.3e-05
1978	2.3e-05
1990	1.84e-05
2002	4.14e-05
2014	2.3e-05
2026	6.9e-05
2038	5.98e-05
2050	4.6e-05
2062	3.68e-05
2074	3.68e-05
2086	2.76e-05
2098	3.22e-05
2110	4.14e-05
2122	5.06e-05
2134	3.22e-05
2146	2.76e-05
2158	4.6e-05
2170	5.52e-05
2182	4.14e-05
2194	3.68e-05
2206	6.44e-05
2218	5.98e-05
2230	5.98e-05
2242	7.82e-05
2254	7.82e-05
2266	0.0001012
2278	8.74e-05
2290	8.74e-05
2302	0.0001058
2314	0.0001012
2326	0.0001288
2338	0.0001196
2350	0.000138
2362	0.0001288
2374	0.0001104
2386	0.0001426
2398	0.0001518
2410	0.000161
2422	0.000138
2434	0.0001334
2446	0.000138
2458	0.0001334
2470	0.0001564
2482	0.0001472
2494	0.0001748
2506	0.0001794
2518	0.0001932
2530	0.0002208
2542	0.0002392
2554	0.0002852
2566	0.0003358
2578	0.000368
2590	0.0004048
2602	0.0004876
2614	0.0005198
2626	0.0005704
2638	0.0005888
2650	0.0006348
2662	0.00069
2674	0.0007452
2686	0.0007728
2698	0.000759
2710	0.0007866
2722	0.0008786
2734	0.0010074
2746	0.0010764
2758	0.0010626
2770	0.0011822
2782	0.0013478
2794	0.0016376
2806	0.0020378
2818	0.0027002
2830	0.0038594
2842	0.0065182
2854	0.0132434
2866	0.0196466
2878	0.0198582
2890	0.0183034
2902	0.01932
2914	0.0261326
2926	0.0397992
2938	0.0454802
2950	0.0345138
2962	0.0340262
2974	0.0290628
2986	0.0126822
2998	0.0058328
3010	0.003381
3022	0.0022954
3034	0.001748
3046	0.0014306
3058	0.001196
3070	0.0010304
3082	0.000897
3094	0.0008372
3106	0.0007406
3118	0.0006532
3130	0.0006072
3142	0.000552
3154	0.0005336
3166	0.0005152
3178	0.0004784
3190	0.0004324
3202	0.000345
3214	0.0002576
3226	0.0002346
3238	0.0001748
3250	0.0001518
3262	0.0001334
3274	0.0001288
3286	0.0001196
3298	0.0001104
3310	0.0001104
3322	8.28e-05
3334	5.98e-05
3346	7.36e-05
3358	0.0001196
3370	0.0001288
3382	0.0001058
3394	9.66e-05
3406	0.000138
3418	0.0001334
3430	0.0001196
3442	0.0001334
3454	0.0001104
3466	0.0001058
3478	7.36e-05
3490	8.74e-05
3502	0.0001012
3514	5.98e-05
3526	4.6e-05
3538	4.6e-05
3550	5.98e-05
3562	5.52e-05
3574	5.98e-05
3586	8.74e-05
3598	0.0001012
3610	0.0001886
3622	0.000414
3634	0.0007268
3646	0.0013202
3658	0.0017986
3670	0.0011822
3682	0.0004968
3694	0.0002254
3706	0.000161
3718	0.0001242
3730	0.0001242
3742	0.000115
3754	0.000138
3766	9.66e-05
3778	0.0001518
3790	0.0001288
3802	0.0001518
3814	0.0001472
3826	0.0001932
3838	0.0002208
