Infrared Spectrum: N-(4-Acetylphenyl)-2,5-dimethylpyrrole
Formula: C 14 H 15 N O
CAS: 83935-45-9
State: gas
Origin: EPA-IR VAPOR PHASE LIBRARY
1/CM	ABSORBANCE
549.8	0.003286
559.445	0.004886
569.09	0.004056
578.734	0.007606
588.379	0.023506
598.024	0.033136
607.669	0.017716
617.313	0.016796
626.958	0.035316
636.603	0.018656
646.248	0.008286
655.893	0.005416
665.537	0.006206
675.182	0.006756
684.827	0.003296
694.472	0.003906
704.116	0.007516
713.761	0.008506
723.406	0.005226
733.051	0.007066
742.695	0.022436
752.34	0.076496
761.985	0.077186
771.63	0.019966
781.275	0.006176
790.919	0.005846
800.564	0.005486
810.209	0.006496
819.854	0.013156
829.498	0.022876
839.143	0.039466
848.788	0.047166
858.433	0.018206
868.078	0.006956
877.722	0.005896
887.367	0.005656
897.012	0.006026
906.657	0.004716
916.301	0.004136
925.946	0.005546
935.591	0.010066
945.236	0.028416
954.88	0.046756
964.525	0.023386
974.17	0.013696
983.815	0.012056
993.46	0.035286
1003.1	0.036006
1012.75	0.017746
1022.39	0.014556
1032.04	0.017516
1041.68	0.010616
1051.33	0.007206
1060.97	0.008596
1070.62	0.015246
1080.26	0.012976
1089.91	0.007446
1099.55	0.010676
1109.2	0.011676
1118.84	0.007676
1128.49	0.004846
1138.13	0.004626
1147.78	0.005816
1157.42	0.006976
1167.07	0.015096
1176.71	0.026026
1186.36	0.011166
1196	0.011786
1205.64	0.015996
1215.29	0.035176
1224.93	0.054826
1234.58	0.071766
1244.22	0.132976
1253.87	0.203876
1263.51	0.149426
1273.16	0.091146
1282.8	0.057486
1292.45	0.041956
1302.09	0.031836
1311.74	0.036606
1321.38	0.068156
1331.03	0.047146
1340.67	0.034096
1350.32	0.047336
1359.96	0.084186
1369.61	0.067876
1379.25	0.060576
1388.9	0.106306
1398.54	0.218076
1408.18	0.207176
1417.83	0.081426
1427.47	0.040166
1437.12	0.033636
1446.76	0.032896
1456.41	0.028936
1466.05	0.022766
1475.7	0.019716
1485.34	0.019666
1494.99	0.031476
1504.63	0.074816
1514.28	0.089406
1523.92	0.051536
1533.57	0.022256
1543.21	0.017656
1552.86	0.017116
1562.5	0.022936
1572.15	0.027186
1581.79	0.031566
1591.44	0.067406
1601.08	0.158526
1610.73	0.091086
1620.37	0.026406
1630.01	0.021056
1639.66	0.023406
1649.3	0.018376
1658.95	0.018586
1668.59	0.022736
1678.24	0.030186
1687.88	0.046246
1697.53	0.140196
1707.17	0.254356
1716.82	0.084516
1726.46	0.027516
1736.11	0.019436
1745.75	0.012336
1755.4	0.009776
1765.04	0.007666
1774.69	0.005606
1784.33	0.004636
1793.98	0.004846
1803.62	0.004296
1813.27	0.003596
1822.91	0.003276
1832.55	0.002956
1842.2	0.002756
1851.84	0.002676
1861.49	0.002646
1871.13	0.002726
1880.78	0.003056
1890.42	0.003556
1900.07	0.004096
1909.71	0.003736
1919.36	0.003826
1929	0.003316
1938.65	0.002756
1948.29	0.002646
1957.94	0.002096
1967.58	0.001646
1977.23	0.001646
1986.87	0.001986
1996.52	0.002076
2006.16	0.002216
2015.81	0.002086
2025.45	0.002406
2035.1	0.002416
2044.74	0.001666
2054.38	0.001376
2064.03	0.001536
2073.67	0.001566
2083.32	0.0013743
2092.96	0.0012574
2102.61	0.0010281
2112.25	0.0012879
2121.9	0.0012593
2131.54	0.0013312
2141.19	0.0013568
2150.83	0.0012042
2160.48	0.0011056
2170.12	0.0011094
2179.77	0.0010674
2189.41	0.0010824
2199.06	0.0010781
2208.7	0.0012034
2218.35	0.0012353
2227.99	0.0012039
2237.64	0.0014096
2247.28	0.0012602
2256.92	0.0013816
2266.57	0.001526
2276.21	0.001656
2285.86	0.001916
2295.5	0.001556
2305.15	0.001456
2314.79	0.0013454
2324.44	0.001626
2334.08	0.001756
2343.73	0.001936
2353.37	0.002376
2363.02	0.002296
2372.66	0.001806
2382.31	0.001426
2391.95	0.001576
2401.6	0.001506
2411.24	0.001516
2420.89	0.001756
2430.53	0.001756
2440.18	0.001656
2449.82	0.0010409
2459.47	0.0011103
2469.11	0.0012046
2478.75	0.0012557
2488.4	0.001566
2498.04	0.001616
2507.69	0.001526
2517.33	0.001946
2526.98	0.001986
2536.62	0.002366
2546.27	0.002406
2555.91	0.002476
2565.56	0.002186
2575.2	0.001996
2584.85	0.001936
2594.49	0.002126
2604.14	0.002096
2613.78	0.002216
2623.43	0.001976
2633.07	0.002286
2642.72	0.002616
2652.36	0.002996
2662.01	0.002866
2671.65	0.002566
2681.29	0.002296
2690.94	0.002196
2700.58	0.002536
2710.23	0.002576
2719.87	0.002806
2729.52	0.003096
2739.16	0.003946
2748.81	0.005716
2758.45	0.004456
2768.1	0.003056
2777.74	0.002956
2787.39	0.003196
2797.03	0.003536
2806.68	0.003686
2816.32	0.005166
2825.97	0.006706
2835.61	0.008746
2845.26	0.010836
2854.9	0.013816
2864.55	0.019346
2874.19	0.024006
2883.84	0.024326
2893.48	0.025566
2903.12	0.027016
2912.77	0.030316
2922.41	0.048436
2932.06	0.064376
2941.7	0.048376
2951.35	0.033836
2960.99	0.023266
2970.64	0.024316
2980.28	0.035446
2989.93	0.035906
2999.57	0.020526
3009.22	0.018666
3018.86	0.018696
3028.51	0.013826
3038.15	0.015276
3047.8	0.021456
3057.44	0.020196
3067.09	0.017016
3076.73	0.016156
3086.38	0.016406
3096.02	0.018746
3105.67	0.024036
3115.31	0.020906
3124.95	0.008536
3134.6	0.004396
3144.24	0.003066
3153.89	0.002456
3163.53	0.001556
3173.18	0.0013422
3182.82	0.0012932
3192.47	0.0006205
3202.11	0.001096
3211.76	0.0011917
3221.4	0.0009011
3231.05	0.000326
3240.69	0.0006885
3250.34	0.0008245
3259.98	0.00046987
3269.63	0.0007495
3279.27	0.0006534
3288.92	0.0007915
3298.56	0.0006516
3308.21	0.0006648
3317.85	0.0007677
3327.49	0.0008128
3337.14	0.0006597
3346.78	0.0009352
3356.43	0.0009904
3366.07	0.0013015
3375.72	0.001906
3385.36	0.003816
3395.01	0.005066
3404.65	0.002906
3414.3	0.001736
3423.94	0.001043
3433.59	0.0009675
3443.23	0.000951
3452.88	0.0005647
3462.52	0.000321
3472.17	0.0006177
3481.81	0.0008007
3491.46	0.0005402
3501.1	0.000309
3510.75	0.0004079
3520.39	0.00045121
3530.04	0.000257
3539.68	0.0005649
3549.32	0.0007707
3558.97	0.0006216
3568.61	0.0004002
3578.26	0.0005745
3587.9	0.0006558
3597.55	0.0006099
3607.19	0.0007894
3616.84	0.000189
3626.48	0.0005393
3636.13	0.0003491
3645.77	0.0008109
3655.42	0.0009035
3665.06	0.0005872
3674.71	0.00044292
3684.35	0.001116
3694	0.0007713
3703.64	0.000431157
3713.29	0.0006582
3722.93	0.00051671
3732.58	0.000456
3742.22	0.0006316
3751.86	0.000427107
3761.51	0.000426323
3771.15	0.0006453
3780.8	0.0008631
3790.44	0.0009259
3800.09	0.00044713
3809.73	0.0008863
3819.38	0.001526
3829.02	0.0008122
3838.67	0.000909
3848.31	0.0009395
3857.96	0.0006859
3867.6	0.0009673
3877.25	0.0010519
3886.89	0.0007423
3896.54	0.0009581
3906.18	0.0010592
3915.83	0.0007818
3925.47	0.0007487
3935.12	0.0006165
3944.76	0.0012007
3954.41	0.0010087
3964.05	0.0011911
3973.69	0.0009497
3983.34	0.0007926
3992.98	0.0009247
