Infrared Spectrum: Phenanthroquinone
Formula: C 14 H 8 O 2
CAS: 84-11-7
State: gas
Instrument: HP-GC/MS/IRD
Origin: NIST Mass Spectrometry Data Center
1/CM	ABSORBANCE
550	0.000616
562	2.24e-05
574	4e-05
586	6.08e-05
598	9.92e-05
610	0.0001952
622	0.000296
634	0.000176
646	0.0001504
658	0.0003504
670	0.0006992
682	0.0001392
694	0.0001936
706	0.0005056
718	0.0021392
730	0.001408
742	0.0019472
754	0.0086976
766	0.0035712
778	0.000584
790	0.0001792
802	5.12e-05
814	8.48e-05
826	6.24e-05
838	7.68e-05
850	7.36e-05
862	0.000168
874	0.0001488
886	0.0001712
898	0.0003808
910	0.0015664
922	0.0041632
934	0.000768
946	0.0002912
958	0.0003792
970	0.0002512
982	9.6e-05
994	0.0002096
1006	0.0011104
1018	0.0009952
1030	0.0001456
1042	3.84e-05
1054	6.4e-05
1066	0.000104
1078	6.4e-05
1090	0.000184
1102	0.0002272
1114	0.0008528
1126	0.0006208
1138	0.0001552
1150	0.0001408
1162	0.000168
1174	0.0001824
1186	0.00032
1198	0.0007936
1210	0.002976
1222	0.0042352
1234	0.0010512
1246	0.0007632
1258	0.0013248
1270	0.0048832
1282	0.0083632
1294	0.0039104
1306	0.001848
1318	0.0020064
1330	0.0014128
1342	0.0003872
1354	0.0002368
1366	0.0001328
1378	0.0001568
1390	0.0002096
1402	0.0003728
1414	0.0003856
1426	0.0003696
1438	0.0011264
1450	0.004488
1462	0.0012752
1474	0.00064
1486	0.0004016
1498	0.0002
1510	3.2e-05
1522	6.08e-05
1534	0.0001856
1546	0.000112
1558	0.000272
1570	0.000848
1582	0.0018016
1594	0.0043648
1606	0.0032256
1618	0.0009136
1630	0.000856
1642	0.000824
1654	0.0007728
1666	0.0016624
1678	0.0032912
1690	0.0091008
1702	0.016
1714	0.0069136
1726	0.00212
1738	0.0009424
1750	0.0007648
1762	0.0006112
1774	0.0002608
1786	0.0001888
1798	0.0001312
1810	0.0002
1822	0.000232
1834	0.00028
1846	0.0002016
1858	0.000224
1870	0.0001344
1882	0.000144
1894	0.0001424
1906	0.0001808
1918	0.0002144
1930	0.000312
1942	0.0003888
1954	0.0002912
1966	0.000392
1978	0.0002112
1990	0.0001104
2002	0.0001152
2014	9.44e-05
2026	7.36e-05
2038	8.32e-05
2050	8.96e-05
2062	6.08e-05
2074	8e-05
2086	7.52e-05
2098	0.000104
2110	7.84e-05
2122	8.64e-05
2134	7.52e-05
2146	9.28e-05
2158	9.12e-05
2170	6.88e-05
2182	6.56e-05
2194	7.68e-05
2206	7.68e-05
2218	8.48e-05
2230	6.24e-05
2242	5.28e-05
2254	6.4e-05
2266	6.72e-05
2278	8.16e-05
2290	6.72e-05
2302	5.76e-05
2314	4.32e-05
2326	8.64e-05
2338	4.48e-05
2350	2.24e-05
2362	0
2374	0
2386	6.08e-05
2398	8.48e-05
2410	7.52e-05
2422	5.76e-05
2434	5.6e-05
2446	7.2e-05
2458	5.92e-05
2470	5.28e-05
2482	5.6e-05
2494	8.16e-05
2506	7.36e-05
2518	4.16e-05
2530	5.92e-05
2542	6.56e-05
2554	6.88e-05
2566	4.16e-05
2578	4.16e-05
2590	5.44e-05
2602	7.04e-05
2614	7.2e-05
2626	5.12e-05
2638	2.88e-05
2650	5.12e-05
2662	4.96e-05
2674	4.96e-05
2686	1.12e-05
2698	4.64e-05
2710	5.92e-05
2722	7.84e-05
2734	7.84e-05
2746	5.76e-05
2758	4.32e-05
2770	5.44e-05
2782	2.72e-05
2794	5.92e-05
2806	8.8e-05
2818	9.6e-05
2830	6.72e-05
2842	7.84e-05
2854	8.8e-05
2866	0.0001088
2878	0.0001664
2890	9.12e-05
2902	8.48e-05
2914	8.96e-05
2926	8.32e-05
2938	8.16e-05
2950	6.56e-05
2962	0.0001088
2974	0.0001056
2986	0.0001504
2998	0.000176
3010	0.0002096
3022	0.0003744
3034	0.0006416
3046	0.000624
3058	0.0008416
3070	0.0022784
3082	0.0028144
3094	0.0010816
3106	0.000648
3118	0.0003568
3130	0.000256
3142	0.0002432
3154	0.0002224
3166	0.000144
3178	0.0001296
3190	0.000112
3202	0.0001264
3214	9.76e-05
3226	9.92e-05
3238	5.28e-05
3250	8.32e-05
3262	0.0001248
3274	6.4e-05
3286	8.32e-05
3298	0.0001472
3310	0.0001536
3322	0.0001408
3334	0.0001184
3346	0.00016
3358	0.0001936
3370	0.0003248
3382	0.0004592
3394	0.000472
3406	0.000312
3418	0.000232
3430	0.000248
3442	0.0001648
3454	0.0001232
3466	0.0001088
3478	9.76e-05
3490	0.000128
3502	6.72e-05
3514	9.12e-05
3526	6.24e-05
3538	0.0001088
3550	7.84e-05
3562	8.16e-05
3574	0.0001072
3586	1.6e-05
3598	0.0001152
3610	4.32e-05
3622	6.72e-05
3634	9.12e-05
3646	2.72e-05
3658	0.0001152
3670	8.16e-05
3682	0.0001536
3694	0.0001216
3706	0.0001408
3718	9.92e-05
3730	7.84e-05
3742	9.6e-06
3754	7.68e-05
3766	0.0001456
3778	0.0001472
3790	0.0001632
3802	8.96e-05
3814	8.96e-05
3826	0.00016
3838	6.72e-05
