Infrared Spectrum: Tetrahydrozoline
Formula: C 13 H 16 N 2
CAS: 84-22-0
State: gas
Instrument: HP-GC/MS/IRD
Origin: NIST Mass Spectrometry Data Center
1/CM	ABSORBANCE
550	0.0013284
562	0.0007644
574	0.0008052
586	0.0006264
598	0.0005988
610	0.000378
622	0.0003576
634	0.00042
646	0.0004236
658	0.0003792
670	0.00036
682	0.0004092
694	0.0003012
706	0.0004968
718	0.0009036
730	0.0027912
742	0.0047148
754	0.0018216
766	0.0007404
778	0.000672
790	0.000444
802	0.0003
814	0.00033
826	7.32e-05
838	8.16e-05
850	2.88e-05
862	8.88e-05
874	0.000198
886	0.0002052
898	0.0001704
910	0.0002652
922	0.0001824
934	0.0001752
946	0.0002208
958	0.000414
970	0.0008748
982	0.001932
994	0.0020436
1006	0.0011256
1018	0.0008772
1030	0.0011244
1042	0.0008712
1054	0.0006576
1066	0.0006516
1078	0.0003804
1090	0.0002676
1102	0.0001644
1114	0.000222
1126	0.0002436
1138	0.0002592
1150	0.00054
1162	0.0007164
1174	0.00075
1186	0.0007032
1198	0.0006252
1210	0.0005796
1222	0.0006528
1234	0.0008328
1246	0.0008508
1258	0.0009468
1270	0.0015396
1282	0.0027408
1294	0.0023856
1306	0.0015348
1318	0.0012312
1330	0.000678
1342	0.0005232
1354	0.0004776
1366	0.0004392
1378	0.0005388
1390	0.0009708
1402	0.002166
1414	0.0044004
1426	0.004122
1438	0.0022932
1450	0.0022584
1462	0.0016932
1474	0.001266
1486	0.0019056
1498	0.0014748
1510	0.0004452
1522	0.0002016
1534	0.0001692
1546	0.0001536
1558	0.0002016
1570	0.0003852
1582	0.00066
1594	0.000942
1606	0.0015084
1618	0.0029964
1630	0.0065664
1642	0.0054696
1654	0.0019668
1666	0.0007368
1678	0.0004452
1690	0.0002328
1702	0.0001488
1714	0.000108
1726	7.32e-05
1738	5.76e-05
1750	4.44e-05
1762	4.8e-06
1774	2.28e-05
1786	4.32e-05
1798	0.0001056
1810	7.2e-05
1822	9.84e-05
1834	7.2e-05
1846	5.76e-05
1858	4.2e-05
1870	3.6e-05
1882	4.92e-05
1894	8.04e-05
1906	0.0001488
1918	0.0001656
1930	0.0001848
1942	0.0001764
1954	9.72e-05
1966	9.48e-05
1978	5.16e-05
1990	2.64e-05
2002	4.2e-05
2014	3e-05
2026	3e-05
2038	6.24e-05
2050	3.48e-05
2062	6.6e-05
2074	1.32e-05
2086	3.6e-05
2098	5.28e-05
2110	4.8e-05
2122	1.8e-05
2134	6.24e-05
2146	5.16e-05
2158	3.96e-05
2170	5.28e-05
2182	3.6e-05
2194	6.24e-05
2206	7.68e-05
2218	8.4e-05
2230	7.2e-05
2242	3.96e-05
2254	9.6e-05
2266	7.68e-05
2278	3.72e-05
2290	5.52e-05
2302	6.6e-05
2314	8.4e-05
2326	0.0001296
2338	9.84e-05
2350	7.8e-05
2362	9.36e-05
2374	0.0001056
2386	0.0001056
2398	4.56e-05
2410	5.28e-05
2422	4.56e-05
2434	5.16e-05
2446	5.76e-05
2458	7.44e-05
2470	7.32e-05
2482	5.16e-05
2494	7.08e-05
2506	7.92e-05
2518	7.8e-05
2530	6.84e-05
2542	3.84e-05
2554	5.64e-05
2566	7.32e-05
2578	9.84e-05
2590	9.12e-05
2602	0.0001044
2614	8.64e-05
2626	0.000114
2638	0.000156
2650	0.0001716
2662	0.0001296
2674	0.0001716
2686	0.0001392
2698	0.000162
2710	0.0001272
2722	0.000156
2734	0.0001476
2746	0.0001848
2758	0.000228
2770	0.0002652
2782	0.0003492
2794	0.0004128
2806	0.0005328
2818	0.0006828
2830	0.0009924
2842	0.0017952
2854	0.0029052
2866	0.0051768
2878	0.0071544
2890	0.0053184
2902	0.0040284
2914	0.0042228
2926	0.0063972
2938	0.0103404
2950	0.0114552
2962	0.006276
2974	0.0037488
2986	0.0022812
2998	0.0012948
3010	0.0015228
3022	0.0022392
3034	0.0015468
3046	0.0014184
3058	0.0019932
3070	0.0024192
3082	0.0016212
3094	0.0006948
3106	0.0004188
3118	0.000252
3130	0.0001656
3142	0.0001896
3154	0.0001728
3166	0.0001548
3178	0.000174
3190	0.0001272
3202	0.0001644
3214	0.0001416
3226	0.0001716
3238	0.0001632
3250	0.0001416
3262	0.0001668
3274	0.0001284
3286	0.0001572
3298	0.0001068
3310	0.0001212
3322	0.0001152
3334	9.72e-05
3346	0.0001116
3358	0.0001344
3370	0.0001344
3382	0.00018
3394	0.0002124
3406	0.000282
3418	0.0007032
3430	0.0010212
3442	0.000702
3454	0.0003936
3466	0.0002748
3478	0.0001572
3490	0.000174
3502	0.0001128
3514	0.0001572
3526	0.0001944
3538	0.0001356
3550	0.0001404
3562	0.00012
3574	0.000144
3586	0.0001368
3598	9.36e-05
3610	0.0001764
3622	7.32e-05
3634	5.4e-05
3646	0.0001416
3658	5.64e-05
3670	0.0001068
3682	8.04e-05
3694	0.0001176
3706	0.0001584
3718	0.0001596
3730	0.0001728
3742	0.000132
3754	0.0001272
3766	0.0001632
3778	0.000126
3790	0.000156
3802	0.0001884
3814	0.0001848
3826	0.000144
3838	0.0001704
