Infrared Spectrum: 2-BROMO-3-METHYLANTHRAQUINONE
Formula: C15 H9 Br O2
CAS: 84-44-6
State: SOLID (KBr PELLET)
Class: COBLENTZ
Instrument: Not specified, most likely a prism, grating, or hybrid spectrometer.
Sampling: TRANSMISSION
Resolution: 4
Origin: CORN PRODUCTS COMPANY
MICROMETERS	TRANSMITTANCE
2.007	0.494
2.04089	0.499
2.07478	0.509
2.10867	0.514
2.14256	0.522
2.17645	0.533
2.21034	0.538
2.24423	0.543
2.27812	0.553
2.31201	0.563
2.3459	0.568
2.37978	0.568
2.41367	0.578
2.44756	0.589
2.48145	0.594
2.51534	0.601
2.54923	0.604
2.58312	0.607
2.61701	0.614
2.6509	0.616
2.68479	0.623
2.71868	0.626
2.75257	0.626
2.78646	0.616
2.82035	0.567
2.85424	0.516
2.88813	0.487
2.92202	0.455
2.95591	0.443
2.9898	0.453
3.02369	0.494
3.05757	0.507
3.09146	0.558
3.12535	0.572
3.15924	0.597
3.19313	0.604
3.22702	0.609
3.26091	0.577
3.2948	0.468
3.32869	0.488
3.36258	0.561
3.39647	0.609
3.43036	0.617
3.46425	0.623
3.49814	0.634
3.53203	0.643
3.56592	0.667
3.59981	0.68
3.6337	0.691
3.66759	0.694
3.70148	0.696
3.73536	0.696
3.76925	0.691
3.80314	0.691
3.83703	0.694
3.87092	0.692
3.90481	0.696
3.9387	0.704
3.97259	0.713
4.00648	0.714
4.04037	0.716
4.07426	0.726
4.10815	0.728
4.14204	0.726
4.17593	0.726
4.20982	0.73
4.24371	0.731
4.2776	0.733
4.31149	0.735
4.34538	0.733
4.37927	0.733
4.41315	0.74
4.44704	0.745
4.48093	0.748
4.51482	0.748
4.54871	0.752
4.5826	0.753
4.61649	0.753
4.65038	0.755
4.68427	0.755
4.71816	0.75
4.75205	0.75
4.78594	0.753
4.81983	0.755
4.85372	0.755
4.88761	0.755
4.9215	0.755
4.95539	0.755
4.98928	0.753
5.02317	0.743
5.05706	0.73
5.09094	0.724
5.12483	0.73
5.15872	0.745
5.19261	0.758
5.2265	0.762
5.26039	0.758
5.29428	0.752
5.32817	0.748
5.36206	0.752
5.39595	0.753
5.42984	0.75
5.46373	0.753
5.49762	0.745
5.53151	0.735
5.5654	0.731
5.59929	0.735
5.63318	0.73
5.66707	0.721
5.70096	0.719
5.73485	0.719
5.76873	0.718
5.80262	0.711
5.83651	0.697
5.8704	0.636
5.90429	0.344
5.93818	0.076
5.97207	0.025
6.00596	0.244
6.03985	0.388
6.07374	0.526
6.10763	0.536
6.14152	0.536
6.17541	0.531
6.2093	0.443
6.24319	0.196
6.27708	0.025
6.31097	0.039
6.34486	0.232
6.37875	0.285
6.41264	0.263
6.44652	0.409
6.48041	0.463
6.5143	0.578
6.54819	0.623
6.58208	0.648
6.61597	0.677
6.64986	0.684
6.68375	0.702
6.71764	0.704
6.75153	0.634
6.78542	0.612
6.81931	0.662
6.8532	0.68
6.88709	0.662
6.92098	0.617
6.95487	0.526
6.98876	0.555
7.02265	0.619
7.05654	0.638
7.09043	0.66
7.12431	0.675
7.1582	0.677
7.19209	0.548
7.22598	0.56
7.25987	0.556
7.29376	0.594
7.32765	0.645
7.36154	0.651
7.39543	0.575
7.42932	0.397
7.46321	0.212
7.4971	0.059
7.53099	0.025
7.56488	0.016
7.59877	0.016
7.63266	0.015
7.66655	0.018
7.70044	0.037
7.73433	0.023
7.76822	0.018
7.8021	0.016
7.83599	0.157
7.86988	0.371
7.90377	0.404
7.93766	0.417
7.97155	0.461
8.00544	0.488
8.03933	0.517
8.07322	0.585
8.10711	0.595
8.141	0.599
8.17489	0.601
8.20878	0.556
8.24267	0.383
8.27656	0.232
8.31045	0.463
8.34434	0.573
8.37823	0.601
8.41212	0.612
8.44601	0.633
8.4799	0.66
8.51378	0.665
8.54767	0.655
8.58156	0.492
8.61545	0.487
8.64934	0.565
8.68323	0.584
8.71712	0.629
8.75101	0.662
8.7849	0.67
8.81879	0.643
8.85268	0.553
8.88657	0.529
8.92046	0.609
8.95435	0.663
8.98824	0.679
9.02213	0.687
9.05602	0.684
9.08991	0.68
9.1238	0.638
9.15769	0.544
9.19157	0.636
9.22546	0.679
9.25935	0.692
9.29324	0.701
9.32713	0.716
9.36102	0.724
9.39491	0.731
9.4288	0.735
9.46269	0.731
9.49658	0.723
9.53047	0.716
9.56436	0.706
9.59825	0.648
9.63214	0.584
9.66603	0.609
9.69992	0.651
9.73381	0.68
9.7677	0.694
9.80159	0.697
9.83548	0.682
9.86936	0.64
9.90325	0.612
9.93714	0.606
9.97103	0.585
10.0049	0.504
10.0388	0.31
10.0727	0.078
10.1066	0.044
10.1405	0.137
10.1744	0.336
10.2083	0.429
10.2421	0.483
10.276	0.572
10.3099	0.601
10.3438	0.612
10.3777	0.619
10.4116	0.624
10.4455	0.551
10.4794	0.21
10.5133	0.176
10.5472	0.346
10.581	0.546
10.6149	0.602
10.6488	0.633
10.6827	0.655
10.7166	0.66
10.7505	0.64
10.7844	0.575
10.8183	0.526
10.8522	0.507
10.886	0.567
10.9199	0.611
10.9538	0.623
10.9877	0.617
11.0216	0.529
11.0555	0.424
11.0894	0.563
11.1233	0.636
11.1572	0.68
11.1911	0.707
11.2249	0.713
11.2588	0.721
11.2927	0.733
11.3266	0.735
11.3605	0.736
11.3944	0.736
11.4283	0.736
11.4622	0.74
11.4961	0.743
11.53	0.75
11.5638	0.752
11.5977	0.752
11.6316	0.752
11.6655	0.748
11.6994	0.75
11.7333	0.748
11.7672	0.74
11.8011	0.738
11.835	0.74
11.8688	0.745
11.9027	0.748
11.9366	0.752
11.9705	0.755
12.0044	0.753
12.0383	0.757
12.0722	0.76
12.1061	0.76
12.14	0.76
12.1739	0.758
12.2077	0.757
12.2416	0.75
12.2755	0.707
12.3094	0.697
12.3433	0.726
12.3772	0.75
12.4111	0.753
12.445	0.752
12.4789	0.75
12.5127	0.745
12.5466	0.731
12.5805	0.706
12.6144	0.668
12.6483	0.517
12.6822	0.385
12.7161	0.573
12.75	0.665
12.7839	0.718
12.8178	0.73
12.8516	0.738
12.8855	0.748
12.9194	0.748
12.9533	0.747
12.9872	0.747
13.0211	0.747
13.055	0.743
13.0889	0.74
13.1228	0.738
13.1566	0.738
13.1905	0.735
13.2244	0.733
13.2583	0.736
13.2922	0.738
13.3261	0.735
13.36	0.73
13.3939	0.731
13.4278	0.728
13.4617	0.707
13.4955	0.657
13.5294	0.556
13.5633	0.55
13.5972	0.585
13.6311	0.629
13.665	0.658
13.6989	0.67
13.7328	0.674
13.7667	0.663
13.8005	0.626
13.8344	0.57
13.8683	0.434
13.9022	0.186
13.9361	0.059
13.97	0.032
14.0039	0.03
14.0378	0.03
14.0717	0.025
14.1056	0.03
14.1394	0.125
14.1733	0.349
14.2072	0.512
14.2411	0.597
14.275	0.633
14.3089	0.648
14.3428	0.658
14.3767	0.641
14.4106	0.514
14.4444	0.424
14.4783	0.556
14.5122	0.636
14.5461	0.679
14.58	0.696
14.6139	0.707
14.6478	0.714
14.6817	0.719
14.7156	0.723
14.7495	0.719
14.7833	0.716
14.8172	0.701
14.8511	0.687
14.885	0.65
14.9189	0.614
14.9528	0.609
14.9867	0.609
15.0206	0.611
15.0545	0.612
15.0883	0.621
15.1222	0.631
15.1561	0.629
15.19	0.587
15.2239	0.524
15.2578	0.483
15.2917	0.478
15.3256	0.529
15.3595	0.602
15.3934	0.651
15.4272	0.682
15.4611	0.696
15.495	0.713
