Infrared Spectrum: ANTHRAQUINONE, 2-TERT-BUTYL
Formula: C18 H16 O2
CAS: 84-47-9
State: SOLUTION (CCl4 FOR 2-10.5, CS2 FOR 10.5-16.0 MICRONS)
Class: COBLENTZ III
Instrument: BAIRD (PRISM)
Instrument parameters: NaCl PRISM
Sampling: TRANSMISSION
Path length: 0.005 CM, 0.005 CM
Resolution: 2
Origin: WYANDOTTE CHEMICALS CORP.
MICROMETERS	TRANSMITTANCE
1.942	0.894
1.98031	0.891
2.01861	0.893
2.05692	0.888
2.09523	0.891
2.13353	0.894
2.17184	0.887
2.21015	0.866
2.24845	0.869
2.28676	0.87
2.32507	0.865
2.36337	0.877
2.40168	0.883
2.43999	0.891
2.47829	0.889
2.5166	0.891
2.55491	0.897
2.59322	0.901
2.63152	0.908
2.66983	0.907
2.70814	0.909
2.74644	0.913
2.78475	0.912
2.82306	0.906
2.86136	0.9
2.89967	0.894
2.93798	0.889
2.97628	0.871
3.01459	0.777
3.0529	0.858
3.0912	0.837
3.12951	0.841
3.16782	0.812
3.20612	0.829
3.24443	0.773
3.28274	0.636
3.32104	0.731
3.35935	0.106
3.39766	0.168
3.43596	0.302
3.47427	0.429
3.51258	0.44
3.55088	0.77
3.58919	0.834
3.6275	0.857
3.6658	0.864
3.70411	0.861
3.74242	0.858
3.78072	0.848
3.81903	0.845
3.85734	0.859
3.89565	0.89
3.93395	0.894
3.97226	0.908
4.01057	0.906
4.04887	0.902
4.08718	0.899
4.12549	0.901
4.16379	0.905
4.2021	0.906
4.24041	0.903
4.27871	0.89
4.31702	0.902
4.35533	0.909
4.39363	0.918
4.43194	0.912
4.47025	0.908
4.50855	0.909
4.54686	0.919
4.58517	0.937
4.62347	0.932
4.66178	0.938
4.70009	0.931
4.73839	0.931
4.7767	0.935
4.81501	0.932
4.85331	0.933
4.89162	0.938
4.92993	0.938
4.96823	0.941
5.00654	0.938
5.04485	0.936
5.08315	0.917
5.12146	0.872
5.15977	0.848
5.19808	0.863
5.23638	0.911
5.27469	0.931
5.313	0.912
5.3513	0.901
5.38961	0.895
5.42792	0.882
5.46622	0.9
5.50453	0.872
5.54284	0.878
5.58114	0.895
5.61945	0.889
5.65776	0.885
5.69606	0.831
5.73437	0.827
5.77268	0.783
5.81098	0.753
5.84929	0.674
5.8876	0.585
5.9259	0.274
5.96421	0.064
6.00252	0.117
6.04082	0.448
6.07913	0.547
6.11744	0.597
6.15574	0.6
6.19405	0.325
6.23236	0.078
6.27066	0.098
6.30897	0.271
6.34728	0.374
6.38558	0.454
6.42389	0.553
6.4622	0.567
6.50051	0.619
6.53881	0.656
6.57712	0.723
6.61543	0.743
6.65373	0.729
6.69204	0.686
6.73035	0.549
6.76865	0.28
6.80696	0.343
6.84527	0.423
6.88357	0.635
6.92188	0.699
6.96019	0.729
6.99849	0.743
7.0368	0.71
7.07511	0.629
7.11341	0.679
7.15172	0.672
7.19003	0.691
7.22833	0.692
7.26664	0.667
7.30495	0.295
7.34325	0.345
7.38156	0.571
7.41987	0.557
7.45817	0.409
7.49648	0.154
7.53479	0.122
7.57309	0.132
7.6114	0.15
7.64971	0.147
7.68802	0.139
7.72632	0.139
7.76463	0.151
7.80294	0.184
7.84124	0.192
7.87955	0.175
7.91786	0.216
7.95616	0.192
7.99447	0.212
8.03278	0.351
8.07108	0.445
8.10939	0.468
8.1477	0.561
8.186	0.609
8.22431	0.561
8.26262	0.606
8.30092	0.618
8.33923	0.629
8.37754	0.711
8.41584	0.747
8.45415	0.693
8.49246	0.512
8.53076	0.456
8.56907	0.546
8.60738	0.734
8.64568	0.75
8.68399	0.761
8.7223	0.788
8.7606	0.816
8.79891	0.825
8.83722	0.831
8.87552	0.812
8.91383	0.77
8.95214	0.811
8.99045	0.83
9.02875	0.833
9.06706	0.831
9.10537	0.803
9.14367	0.755
9.18198	0.777
9.22029	0.751
9.25859	0.807
9.2969	0.825
9.33521	0.841
9.37351	0.845
9.41182	0.853
9.45013	0.861
9.48843	0.864
9.52674	0.873
9.56505	0.877
9.60335	0.875
9.64166	0.853
9.67997	0.851
9.71827	0.834
9.75658	0.812
9.79489	0.813
9.83319	0.816
9.8715	0.819
9.90981	0.813
9.94811	0.811
9.98642	0.813
10.0247	0.815
10.063	0.813
10.1013	0.812
10.1396	0.811
10.178	0.811
10.2163	0.738
10.2546	0.602
10.2929	0.303
10.3312	0.109
10.3695	0.333
10.4078	0.553
10.4461	0.704
10.4844	0.809
10.5227	0.841
10.561	0.846
10.5993	0.827
10.6376	0.78
10.6759	0.661
10.7142	0.312
10.7526	0.048
10.7909	0.044
10.8292	0.18
10.8675	0.37
10.9058	0.469
10.9441	0.549
10.9824	0.699
11.0207	0.776
11.059	0.819
11.0973	0.839
11.1356	0.827
11.1739	0.749
11.2122	0.727
11.2505	0.827
11.2889	0.866
11.3272	0.883
11.3655	0.885
11.4038	0.883
11.4421	0.885
11.4804	0.881
11.5187	0.853
11.557	0.811
11.5953	0.75
11.6336	0.638
11.6719	0.49
11.7102	0.213
11.7485	0.098
11.7868	0.176
11.8251	0.226
11.8635	0.47
11.9018	0.653
11.9401	0.758
11.9784	0.823
12.0167	0.866
12.055	0.906
12.0933	0.912
12.1316	0.919
12.1699	0.921
12.2082	0.921
12.2465	0.912
12.2848	0.87
12.3231	0.735
12.3614	0.765
12.3997	0.841
12.4381	0.863
12.4764	0.879
12.5147	0.881
12.553	0.853
12.5913	0.813
12.6296	0.776
12.6679	0.672
12.7062	0.51
12.7445	0.714
12.7828	0.821
12.8211	0.876
12.8594	0.891
12.8977	0.901
12.936	0.906
12.9743	0.907
13.0127	0.911
13.051	0.915
13.0893	0.919
13.1276	0.923
13.1659	0.925
13.2042	0.929
13.2425	0.931
13.2808	0.932
13.3191	0.929
13.3574	0.926
13.3957	0.921
13.434	0.911
13.4723	0.901
13.5106	0.891
13.549	0.866
13.5873	0.833
13.6256	0.756
13.6639	0.563
13.7022	0.291
13.7405	0.228
13.7788	0.426
13.8171	0.547
13.8554	0.6
13.8937	0.546
13.932	0.384
13.9703	0.192
14.0086	0.086
14.0469	0.073
14.0852	0.075
14.1236	0.092
14.1619	0.151
14.2002	0.237
14.2385	0.34
14.2768	0.444
14.3151	0.519
14.3534	0.581
14.3917	0.638
14.43	0.71
14.4683	0.747
14.5066	0.765
14.5449	0.758
14.5832	0.764
14.6215	0.777
14.6598	0.792
14.6982	0.795
14.7365	0.792
14.7748	0.771
14.8131	0.732
14.8514	0.637
14.8897	0.506
14.928	0.386
14.9663	0.326
15.0046	0.349
15.0429	0.465
15.0812	0.625
15.1195	0.689
15.1578	0.722
15.1961	0.746
15.2344	0.764
15.2728	0.758
15.3111	0.753
15.3494	0.751
15.3877	0.77
15.426	0.795
15.4643	0.816
15.5026	0.821
15.5409	0.825
15.5792	0.827
15.6175	0.822
15.6558	0.786
15.6941	0.729
15.7324	0.677
15.7707	0.669
15.809	0.699
15.8474	0.741
15.8857	0.78
15.924	0.811
