Infrared Spectrum: ANTHRAQUINONE, 2-AMINO-3-CHLORO-
Formula: C14 H8 Cl N O2
CAS: 84-46-8
State: SOLID (NUJOL MULL)
Class: COBLENTZ
Instrument: Not specified, most likely a prism, grating, or hybrid spectrometer.
Sampling: TRANSMISSION
Resolution: 4
Origin: TENNESSEE EASTMAN COMPANY, RESEARCH LABORATORIES
MICROMETERS	TRANSMITTANCE
2.028	0.507
2.06797	0.519
2.10794	0.527
2.14791	0.532
2.18788	0.537
2.22785	0.544
2.26782	0.547
2.30779	0.549
2.34776	0.559
2.38773	0.574
2.4277	0.587
2.46767	0.597
2.50764	0.612
2.54761	0.627
2.58759	0.632
2.62756	0.633
2.66753	0.652
2.7075	0.655
2.74747	0.672
2.78744	0.677
2.82741	0.69
2.86738	0.702
2.90735	0.534
2.94732	0.708
2.98729	0.422
3.02726	0.489
3.06723	0.623
3.1072	0.645
3.14717	0.627
3.18714	0.653
3.22711	0.677
3.26708	0.675
3.30705	0.647
3.34702	0.527
3.38699	0.114
3.42696	0.036
3.46693	0.126
3.5069	0.113
3.54687	0.517
3.58684	0.705
3.62682	0.757
3.66679	0.765
3.70676	0.758
3.74673	0.757
3.7867	0.758
3.82667	0.768
3.86664	0.783
3.90661	0.798
3.94658	0.813
3.98655	0.821
4.02652	0.83
4.06649	0.843
4.10646	0.851
4.14643	0.851
4.1864	0.851
4.22637	0.858
4.26634	0.863
4.30631	0.861
4.34628	0.86
4.38625	0.865
4.42622	0.876
4.46619	0.881
4.50616	0.89
4.54613	0.896
4.5861	0.898
4.62607	0.898
4.66604	0.9
4.70602	0.91
4.74599	0.915
4.78596	0.918
4.82593	0.921
4.8659	0.925
4.90587	0.926
4.94584	0.926
4.98581	0.928
5.02578	0.936
5.06575	0.936
5.10572	0.936
5.14569	0.941
5.18566	0.948
5.22563	0.948
5.2656	0.95
5.30557	0.951
5.34554	0.951
5.38551	0.953
5.42548	0.96
5.46545	0.96
5.50542	0.961
5.54539	0.961
5.58536	0.963
5.62533	0.966
5.6653	0.968
5.70527	0.973
5.74525	0.973
5.78522	0.973
5.82519	0.971
5.86516	0.971
5.90513	0.961
5.9451	0.861
5.98507	0.435
6.02504	0.85
6.06501	0.843
6.10498	0.765
6.14495	0.379
6.18492	0.341
6.22489	0.642
6.26486	0.662
6.30483	0.5
6.3448	0.414
6.38477	0.217
6.42474	0.494
6.46471	0.565
6.50468	0.752
6.54465	0.787
6.58462	0.797
6.62459	0.777
6.66456	0.752
6.70453	0.782
6.7445	0.718
6.78447	0.439
6.82445	0.381
6.86442	0.392
6.90439	0.497
6.94436	0.648
6.98433	0.823
7.0243	0.861
7.06427	0.885
7.10424	0.901
7.14421	0.898
7.18418	0.808
7.22415	0.608
7.26412	0.487
7.30409	0.472
7.34406	0.412
7.38403	0.227
7.424	0.171
7.46397	0.277
7.50394	0.507
7.54391	0.637
7.58388	0.697
7.62385	0.73
7.66382	0.763
7.70379	0.772
7.74376	0.75
7.78373	0.727
7.8237	0.482
7.86368	0.277
7.90365	0.577
7.94362	0.692
7.98359	0.76
8.02356	0.788
8.06353	0.74
8.1035	0.627
8.14347	0.768
8.18344	0.816
8.22341	0.83
8.26338	0.835
8.30335	0.85
8.34332	0.858
8.38329	0.86
8.42326	0.861
8.46323	0.856
8.5032	0.717
8.54317	0.753
8.58314	0.795
8.62311	0.816
8.66308	0.848
8.70305	0.861
8.74302	0.86
8.78299	0.825
8.82296	0.808
8.86293	0.86
8.9029	0.866
8.94288	0.875
8.98285	0.883
9.02282	0.888
9.06279	0.893
9.10276	0.89
9.14273	0.881
9.1827	0.888
9.22267	0.901
9.26264	0.901
9.30261	0.901
9.34258	0.901
9.38255	0.901
9.42252	0.901
9.46249	0.901
9.50246	0.901
9.54243	0.901
9.5824	0.898
9.62237	0.88
9.66234	0.853
9.70231	0.777
9.74228	0.69
9.78225	0.755
9.82222	0.84
9.86219	0.865
9.90216	0.875
9.94213	0.886
9.98211	0.898
10.0221	0.898
10.062	0.9
10.102	0.901
10.142	0.9
10.182	0.9
10.2219	0.895
10.2619	0.881
10.3019	0.858
10.3418	0.855
10.3818	0.783
10.4218	0.773
10.4617	0.855
10.5017	0.865
10.5417	0.871
10.5817	0.88
10.6216	0.891
10.6616	0.893
10.7016	0.893
10.7415	0.893
10.7815	0.895
10.8215	0.898
10.8615	0.9
10.9014	0.9
10.9414	0.853
10.9814	0.798
11.0213	0.818
11.0613	0.821
11.1013	0.861
11.1412	0.893
11.1812	0.903
11.2212	0.908
11.2612	0.91
11.3011	0.91
11.3411	0.9
11.3811	0.85
11.421	0.845
11.461	0.878
11.501	0.91
11.5409	0.915
11.5809	0.915
11.6209	0.915
11.6609	0.915
11.7008	0.916
11.7408	0.915
11.7808	0.915
11.8207	0.915
11.8607	0.915
11.9007	0.915
11.9407	0.915
11.9806	0.915
12.0206	0.915
12.0606	0.915
12.1005	0.915
12.1405	0.915
12.1805	0.913
12.2204	0.913
12.2604	0.913
12.3004	0.913
12.3404	0.91
12.3803	0.891
12.4203	0.863
12.4603	0.865
12.5002	0.87
12.5402	0.873
12.5802	0.865
12.6202	0.86
12.6601	0.868
12.7001	0.881
12.7401	0.891
12.78	0.893
12.82	0.893
12.86	0.895
12.8999	0.896
12.9399	0.898
12.9799	0.9
13.0199	0.9
13.0598	0.896
13.0998	0.865
13.1398	0.8
13.1797	0.782
13.2197	0.798
13.2597	0.816
13.2996	0.83
13.3396	0.84
13.3796	0.843
13.4196	0.843
13.4595	0.843
13.4995	0.841
13.5395	0.841
13.5794	0.841
13.6194	0.84
13.6594	0.836
13.6994	0.825
13.7393	0.805
13.7793	0.783
13.8193	0.735
13.8592	0.633
13.8992	0.539
13.9392	0.424
13.9791	0.391
14.0191	0.392
14.0591	0.417
14.0991	0.537
14.139	0.677
14.179	0.73
14.219	0.732
14.2589	0.728
14.2989	0.732
14.3389	0.76
14.3788	0.785
14.4188	0.797
14.4588	0.8
14.4988	0.777
14.5387	0.748
14.5787	0.737
14.6187	0.737
14.6586	0.74
14.6986	0.755
14.7386	0.77
14.7786	0.775
14.8185	0.777
14.8585	0.775
14.8985	0.777
14.9384	0.775
14.9784	0.77
15.0184	0.755
15.0583	0.745
15.0983	0.74
15.1383	0.742
15.1783	0.742
15.2182	0.742
15.2582	0.742
15.2982	0.742
15.3381	0.742
15.3781	0.742
15.4181	0.742
15.458	0.742
15.498	0.742
15.538	0.742
15.578	0.742
15.6179	0.742
15.6579	0.74
15.6979	0.74
15.7378	0.74
15.7778	0.74
15.8178	0.74
15.8578	0.742
15.8977	0.742
15.9377	0.742
