Infrared Spectrum: 1,2-Benzenedioic acid, diphenyl ester
Formula: C20 H14 O4
CAS: 84-62-8
State: SOLUTION (10% CCl4 FOR 2.7-7.5, CS2 FOR 7.5-26 MICRON) VS SOLVENT
Class: COBLENTZ III
Instrument: DOW KBr FOREPRISM-GRATING
Instrument parameters: BLAZED AT 3.5, 12.0, 20.0 MICRON AND CHANGED AT 5.0, 7.5, 14.9 MICRON
Sampling: TRANSMISSION
Path length: 0.011 CM, 0.011 CM
Resolution: 2
Origin: DOW CHEMICAL COMPANY
1/CM	TRANSMITTANCE
3794	0.8531
3785	0.8528
3776	0.8524
3767	0.8524
3758	0.8528
3749	0.8533
3740	0.8536
3731	0.8539
3722	0.8541
3713	0.8542
3704	0.8544
3695	0.8541
3686	0.8537
3677	0.8532
3668	0.8525
3659	0.8518
3650	0.8518
3641	0.8517
3632	0.8521
3623	0.8551
3614	0.8591
3605	0.8618
3596	0.8623
3587	0.8625
3578	0.8628
3569	0.8649
3560	0.8677
3551	0.8696
3542	0.871
3533	0.8712
3524	0.8714
3515	0.8713
3506	0.8697
3497	0.865
3488	0.8586
3479	0.8531
3470	0.8478
3461	0.8451
3452	0.8521
3443	0.8631
3434	0.8721
3425	0.8786
3416	0.8821
3407	0.8843
3398	0.8853
3389	0.8862
3380	0.8871
3371	0.8878
3362	0.8885
3353	0.8888
3344	0.889
3335	0.8891
3326	0.8893
3317	0.8894
3308	0.8902
3299	0.8921
3290	0.8935
3281	0.8946
3272	0.8952
3263	0.8957
3254	0.8959
3245	0.896
3236	0.896
3227	0.8952
3218	0.8941
3209	0.8911
3200	0.888
3191	0.8862
3182	0.8844
3173	0.8828
3164	0.8821
3155	0.8815
3146	0.8806
3137	0.8796
3128	0.8783
3119	0.8748
3110	0.8668
3101	0.8256
3092	0.7811
3083	0.7736
3074	0.6178
3065	0.6188
3056	0.6808
3047	0.7219
3038	0.6511
3029	0.7303
3020	0.8017
3011	0.8295
3002	0.8512
2993	0.863
2984	0.8708
2975	0.8757
2966	0.8791
2957	0.8817
2948	0.8835
2939	0.8846
2930	0.8855
2921	0.8853
2912	0.8846
2903	0.8833
2894	0.8813
2885	0.8785
2876	0.8758
2867	0.8745
2858	0.8747
2849	0.8751
2840	0.8757
2831	0.876
2822	0.876
2813	0.876
2804	0.876
2795	0.8758
2786	0.8756
2777	0.8754
2768	0.8751
2759	0.8748
2750	0.8745
2741	0.8747
2732	0.8751
2723	0.8754
2714	0.8759
2705	0.8763
2696	0.8767
2687	0.8763
2678	0.8759
2669	0.8754
2660	0.8748
2651	0.8741
2642	0.8736
2633	0.8737
2624	0.8738
2615	0.8691
2606	0.8658
2597	0.8665
2588	0.8671
2579	0.8678
2570	0.8686
2561	0.8694
2552	0.8705
2543	0.8716
2534	0.8725
2525	0.8728
2516	0.873
2507	0.8732
2498	0.8732
2489	0.8731
2480	0.873
2471	0.8731
2462	0.8733
2453	0.8735
2444	0.8734
2435	0.8733
2426	0.8731
2417	0.8725
2408	0.8721
2399	0.8641
2390	0.8575
2381	0.8557
2372	0.8558
2363	0.8578
2354	0.8573
2345	0.8544
2336	0.855
2327	0.8544
2318	0.8454
2309	0.8474
2300	0.8518
2291	0.856
2282	0.8604
2273	0.8648
2264	0.8671
2255	0.8664
2246	0.8656
2237	0.867
2228	0.8706
2219	0.8742
2210	0.8752
2201	0.8732
2192	0.866
2183	0.867
2174	0.8748
2165	0.8728
2156	0.8693
2147	0.8653
2138	0.8621
2129	0.8598
2120	0.8578
2111	0.8532
2102	0.8568
2093	0.8617
2084	0.8645
2075	0.865
2066	0.8636
2057	0.857
2048	0.8527
2039	0.8513
2030	0.8463
2021	0.8389
2012	0.8321
2003	0.8304
1994	0.8336
1985	0.8371
1976	0.8338
1967	0.8218
1958	0.8258
1949	0.8062
1940	0.7965
1931	0.7661
1922	0.825
1913	0.8366
1904	0.8368
1895	0.833
1886	0.8303
1877	0.8309
1868	0.8019
1859	0.8144
1850	0.8267
1841	0.8111
1832	0.7962
1823	0.7991
1814	0.7898
1805	0.7742
1796	0.7543
1787	0.6824
1778	0.5031
1769	0.3492
1760	0.0911
1751	0.0147
1742	0.008
1733	0.0158
1724	0.336
1715	0.5862
1706	0.6558
1697	0.708
1688	0.7615
1679	0.7845
1670	0.7988
1661	0.8064
1652	0.8117
1643	0.8151
1634	0.8161
1625	0.8151
1616	0.7883
1607	0.7694
1598	0.2734
1589	0.3376
1580	0.4018
1571	0.6654
1562	0.7604
1553	0.7928
1544	0.8045
1535	0.8045
1526	0.7978
1517	0.7782
1508	0.7428
1499	0.2605
1490	0.0664
1481	0.3443
1472	0.6072
1463	0.6962
1454	0.6844
1445	0.7318
1436	0.7794
1427	0.7922
1418	0.7948
1409	0.7947
1400	0.7938
1391	0.7861
1382	0.7801
1373	0.7736
1364	0.764
1355	0.7528
1346	0.7371
1337	0.7158
1328	0.693
1319	0.6637
1310	0.4903
1301	0.335
1292	0.21
1283	0.0593
1274	0.0541
1265	0.0096
1256	0.0072
1247	0.0147
1238	0.0501
1229	0.1853
1220	0.375
1211	0.3738
1202	0.1254
1193	0.0036
1184	0.0049
1175	0.2474
1166	0.3288
1157	0.0481
1148	0.5497
1139	0.6348
1130	0.2484
1121	0.4632
1112	0.5575
1103	0.4567
1094	0.1255
1085	0.0244
1076	0.4749
1067	0.3446
1058	0.5291
1049	0.0936
1040	0.1584
1031	0.2409
1022	0.4194
1013	0.6721
1004	0.5085
995	0.6401
986	0.7344
977	0.7587
968	0.7724
959	0.7421
950	0.7767
941	0.7961
932	0.7967
923	0.7751
914	0.5032
905	0.6208
896	0.7625
887	0.7951
878	0.7808
869	0.7957
860	0.7055
851	0.588
842	0.7031
833	0.7453
824	0.6785
815	0.6878
806	0.7025
797	0.7521
788	0.6134
779	0.4968
770	0.4224
761	0.3539
752	0.1496
743	0.0916
734	0.2365
725	0.5558
716	0.6353
707	0.4779
698	0.34
689	0.1725
680	0.3964
671	0.7382
662	0.7868
653	0.6644
644	0.7475
635	0.8155
626	0.8271
617	0.8223
608	0.7871
599	0.7964
590	0.62
581	0.7468
572	0.7812
563	0.8161
554	0.8251
545	0.8275
536	0.8172
527	0.7625
518	0.7389
509	0.6893
500	0.6788
491	0.6364
482	0.6858
473	0.7425
464	0.771
455	0.7826
446	0.7858
437	0.7824
428	0.7792
419	0.7785
410	0.779
401	0.7804
