Infrared Spectrum: Phthalic acid, butyl cyclohexyl ester
Formula: C18 H24 O4
CAS: 84-64-0
State: SOLUTION (10% CCl4 FOR 2.7-7.5, CS2 FOR 7.5-26 MICRON) VS SOLVENT
Class: COBLENTZ III
Instrument: DOW KBr FOREPRISM-GRATING
Instrument parameters: BLAZED AT 3.5, 12.0, 20.0 MICRON AND CHANGED AT 5.0, 7.5, 14.9 MICRON
Sampling: TRANSMISSION
Path length: 0.011 CM, 0.011 CM
Resolution: 2
Origin: DOW CHEMICAL COMPANY
1/CM	TRANSMITTANCE
3794	0.858
3785	0.858
3776	0.8578
3767	0.8578
3758	0.8578
3749	0.8578
3740	0.8581
3731	0.8585
3722	0.8591
3713	0.8597
3704	0.8606
3695	0.8614
3686	0.8616
3677	0.8599
3668	0.8574
3659	0.8568
3650	0.8625
3641	0.8639
3632	0.8649
3623	0.8656
3614	0.8664
3605	0.8671
3596	0.8678
3587	0.8687
3578	0.8695
3569	0.8703
3560	0.8712
3551	0.8711
3542	0.8711
3533	0.8718
3524	0.8728
3515	0.8742
3506	0.8757
3497	0.877
3488	0.878
3479	0.8791
3470	0.8798
3461	0.88
3452	0.8768
3443	0.8695
3434	0.861
3425	0.8531
3416	0.8503
3407	0.8532
3398	0.8602
3389	0.8678
3380	0.8767
3371	0.8823
3362	0.8855
3353	0.8868
3344	0.8881
3335	0.8893
3326	0.8904
3317	0.8913
3308	0.8921
3299	0.8931
3290	0.8941
3281	0.8951
3272	0.896
3263	0.8968
3254	0.8978
3245	0.8985
3236	0.8987
3227	0.8988
3218	0.8984
3209	0.8973
3200	0.8951
3191	0.8924
3182	0.8891
3173	0.8858
3164	0.8835
3155	0.8828
3146	0.8825
3137	0.8832
3128	0.8844
3119	0.8844
3110	0.8836
3101	0.8806
3092	0.8728
3083	0.8684
3074	0.8488
3065	0.7765
3056	0.7665
3047	0.7998
3038	0.8316
3029	0.8303
3020	0.8139
3011	0.813
3002	0.7935
2993	0.7192
2984	0.6401
2975	0.4062
2966	0.1209
2957	0.0965
2948	0.0918
2939	0.071
2930	0.05
2921	0.0681
2912	0.2707
2903	0.3195
2894	0.3959
2885	0.4725
2876	0.4494
2867	0.2939
2858	0.2168
2849	0.3686
2840	0.5843
2831	0.7157
2822	0.768
2813	0.7955
2804	0.8087
2795	0.8172
2786	0.8277
2777	0.8386
2768	0.8477
2759	0.8545
2750	0.8589
2741	0.8589
2732	0.8571
2723	0.8564
2714	0.8568
2705	0.8575
2696	0.8587
2687	0.8601
2678	0.8614
2669	0.8578
2660	0.8482
2651	0.8449
2642	0.8492
2633	0.8585
2624	0.8621
2615	0.8638
2606	0.8648
2597	0.8633
2588	0.8623
2579	0.8628
2570	0.8637
2561	0.8648
2552	0.8662
2543	0.8675
2534	0.8692
2525	0.871
2516	0.8735
2507	0.8751
2498	0.8767
2489	0.8785
2480	0.8796
2471	0.8805
2462	0.8806
2453	0.8803
2444	0.8791
2435	0.877
2426	0.8738
2417	0.8696
2408	0.8662
2399	0.8649
2390	0.8652
2381	0.8662
2372	0.8671
2363	0.8682
2354	0.8692
2345	0.8702
2336	0.8709
2327	0.8707
2318	0.8704
2309	0.8703
2300	0.8702
2291	0.8703
2282	0.8705
2273	0.8706
2264	0.8703
2255	0.8673
2246	0.8662
2237	0.8687
2228	0.8738
2219	0.8748
2210	0.874
2201	0.8739
2192	0.8742
2183	0.8755
2174	0.8845
2165	0.8825
2156	0.8767
2147	0.8762
2138	0.876
2129	0.8756
2120	0.8749
2111	0.8749
2102	0.8751
2093	0.8761
2084	0.8765
2075	0.8767
2066	0.877
2057	0.8773
2048	0.8778
2039	0.8785
2030	0.8791
2021	0.8788
2012	0.8782
2003	0.877
1994	0.874
1985	0.8701
1976	0.8687
1967	0.8571
1958	0.8508
1949	0.8605
1940	0.8468
1931	0.8397
1922	0.8568
1913	0.8608
1904	0.8595
1895	0.8602
1886	0.8615
1877	0.8621
1868	0.8611
1859	0.8489
1850	0.8548
1841	0.8512
1832	0.832
1823	0.8297
1814	0.8321
1805	0.8309
1796	0.8253
1787	0.8044
1778	0.7783
1769	0.7462
1760	0.7094
1751	0.606
1742	0.2288
1733	0.0129
1724	0.0002
1715	0.0002
1706	0.1319
1697	0.3894
1688	0.5514
1679	0.6342
1670	0.7101
1661	0.7617
1652	0.7895
1643	0.803
1634	0.8047
1625	0.8043
1616	0.8028
1607	0.7912
1598	0.5555
1589	0.7057
1580	0.559
1571	0.6841
1562	0.7957
1553	0.8289
1544	0.8365
1535	0.836
1526	0.8307
1517	0.8209
1508	0.8094
1499	0.7817
1490	0.5769
1481	0.6625
1472	0.4516
1463	0.4547
1454	0.3026
1445	0.3898
1436	0.6591
1427	0.739
1418	0.7684
1409	0.7696
1400	0.7567
1391	0.7048
1382	0.524
1373	0.5772
1364	0.6485
1355	0.5714
1346	0.5509
1337	0.4788
1328	0.5187
1319	0.3573
1310	0.2908
1301	0.2293
1292	0.069
1283	0
1274	0
1265	0
1256	0.0029
1247	0.0678
1238	0.2634
1229	0.487
1220	0.6064
1211	0.6615
1202	0.6955
1193	0.709
1184	0.7107
1175	0.7232
1166	0.7014
1157	0.46
1148	0.4382
1139	0.226
1130	0.0842
1121	0.0331
1112	0.0548
1103	0.3941
1094	0.5758
1085	0.5616
1076	0.2799
1067	0.0446
1058	0.3741
1049	0.573
1040	0.3997
1031	0.3705
1022	0.648
1013	0.408
1004	0.455
995	0.726
986	0.744
977	0.7764
968	0.7389
959	0.6279
950	0.6389
941	0.4407
932	0.5405
923	0.6282
914	0.6102
905	0.729
896	0.7624
887	0.6741
878	0.7815
869	0.794
860	0.7719
851	0.7796
842	0.7137
833	0.6584
824	0.7696
815	0.8047
806	0.7908
797	0.7205
788	0.6734
779	0.6468
770	0.6443
761	0.6217
752	0.484
743	0.2455
734	0.3066
725	0.6736
716	0.7289
707	0.4851
698	0.5837
689	0.7193
680	0.8178
671	0.8444
662	0.8591
653	0.7488
644	0.7637
635	0.8448
626	0.8527
617	0.8462
608	0.8355
599	0.8106
590	0.7861
581	0.8182
572	0.8183
563	0.8053
554	0.8087
545	0.8194
536	0.8234
527	0.8183
518	0.8182
509	0.8137
500	0.801
491	0.8043
482	0.7987
473	0.7915
464	0.7968
455	0.8046
446	0.8033
437	0.8022
428	0.8018
419	0.8018
410	0.8037
401	0.8067
