Infrared Spectrum: Anthraquinone
Formula: C 14 H 8 O 2
CAS: 84-65-1
State: gas
Instrument: HP-GC/MS/IRD
Origin: NIST Mass Spectrometry Data Center
1/CM	ABSORBANCE
550	0.0003855
562	9.15e-05
574	0.000201
586	5.7e-05
598	0.0002475
610	0.0003105
622	0.0008145
634	0.0009105
646	0.0002235
658	0.0003855
670	0.000648
682	0.001314
694	0.0057795
706	0.003855
718	0.000876
730	0.0005985
742	0.0003915
754	0.0003525
766	0.0003525
778	0.000405
790	0.0006735
802	0.0019395
814	0.001125
826	0.0005775
838	0.0004395
850	0.0004215
862	0.0004515
874	0.0004245
886	0.0004095
898	0.000879
910	0.0011595
922	0.00174
934	0.004917
946	0.002529
958	0.000681
970	0.0006195
982	0.0004725
994	0.000387
1006	0.000474
1018	0.000375
1030	0.000327
1042	0.000366
1054	0.000372
1066	0.000318
1078	0.0003525
1090	0.000381
1102	0.000354
1114	0.0004335
1126	0.000402
1138	0.0005715
1150	0.0006525
1162	0.0012435
1174	0.0007485
1186	0.0005805
1198	0.000795
1210	0.000585
1222	0.00063
1234	0.000945
1246	0.00087
1258	0.0016395
1270	0.0068985
1282	0.010701
1294	0.0097305
1306	0.015
1318	0.00942
1330	0.004485
1342	0.0007935
1354	0.0005085
1366	0.000483
1378	0.0004605
1390	0.0004965
1402	0.0004335
1414	0.000384
1426	0.000369
1438	0.00036
1450	0.0003105
1462	0.000399
1474	0.000483
1486	0.000378
1498	0.0003165
1510	0.0003495
1522	0.0003495
1534	0.000543
1546	0.0004395
1558	0.0005415
1570	0.0010185
1582	0.0017985
1594	0.003342
1606	0.001872
1618	0.0008445
1630	0.000666
1642	0.000825
1654	0.000783
1666	0.001275
1678	0.00666
1690	0.012549
1702	0.003597
1714	0.0014385
1726	0.0011355
1738	0.0006945
1750	0.000321
1762	0.000279
1774	0.0002955
1786	0.000258
1798	0.000273
1810	0.0002805
1822	0.0002205
1834	0.000222
1846	0.0002445
1858	0.000318
1870	0.000288
1882	0.000291
1894	0.000228
1906	0.000186
1918	0.000177
1930	0.0002145
1942	0.0002595
1954	0.00033
1966	0.00036
1978	0.000354
1990	0.000231
2002	0.000159
2014	0.000141
2026	0.000147
2038	0.00012
2050	0.000147
2062	0.000138
2074	0.000147
2086	0.0001455
2098	0.000147
2110	0.000138
2122	0.000117
2134	0.0001065
2146	0.000141
2158	0.000126
2170	0.0001095
2182	0.0001095
2194	0.000138
2206	0.0001065
2218	0.0001065
2230	0.0001065
2242	0.000147
2254	0.000159
2266	0.000132
2278	9.6e-05
2290	9.9e-05
2302	0.0001005
2314	0.000102
2326	6.9e-05
2338	7.5e-05
2350	4.35e-05
2362	2.7e-05
2374	7.8e-05
2386	6.75e-05
2398	9.3e-05
2410	8.1e-05
2422	7.8e-05
2434	6.9e-05
2446	5.7e-05
2458	8.4e-05
2470	9e-05
2482	8.55e-05
2494	5.7e-05
2506	6.3e-05
2518	4.95e-05
2530	5.1e-05
2542	4.5e-05
2554	3.9e-05
2566	3.6e-05
2578	4.35e-05
2590	6.3e-05
2602	7.65e-05
2614	7.5e-05
2626	0.00015
2638	0.000135
2650	7.65e-05
2662	6.75e-05
2674	7.5e-05
2686	0.0001095
2698	7.2e-05
2710	6.75e-05
2722	7.05e-05
2734	3e-05
2746	7.95e-05
2758	7.95e-05
2770	9.75e-05
2782	7.05e-05
2794	3.9e-05
2806	4.8e-05
2818	3.75e-05
2830	4.8e-05
2842	3.15e-05
2854	6.15e-05
2866	0.000114
2878	0.000138
2890	0.000135
2902	0.000135
2914	9.45e-05
2926	3e-05
2938	7.05e-05
2950	4.35e-05
2962	3e-05
2974	2.55e-05
2986	6.45e-05
2998	0.0001035
3010	0.0001815
3022	0.00021
3034	0.0003015
3046	0.0002895
3058	0.00039
3070	0.0014985
3082	0.0023355
3094	0.000366
3106	0.000138
3118	0.000105
3130	0.000108
3142	9.15e-05
3154	0.0001215
3166	0.0001245
3178	9.9e-05
3190	5.4e-05
3202	7.05e-05
3214	8.25e-05
3226	2.4e-05
3238	6.45e-05
3250	5.7e-05
3262	6.75e-05
3274	0.0001035
3286	7.05e-05
3298	7.95e-05
3310	8.85e-05
3322	6.9e-05
3334	9.45e-05
3346	0.0002025
3358	0.000351
3370	0.0001785
3382	7.05e-05
3394	8.55e-05
3406	4.2e-05
3418	7.05e-05
3430	7.05e-05
3442	4.5e-05
3454	7.05e-05
3466	6.3e-05
3478	2.7e-05
3490	5.55e-05
3502	6.6e-05
3514	6e-06
3526	1.05e-05
3538	4.2e-05
3550	6e-05
3562	4.8e-05
3574	6.9e-05
3586	4.8e-05
3598	3.15e-05
3610	0
3622	0.0001095
3634	5.25e-05
3646	4.35e-05
3658	5.25e-05
3670	2.4e-05
3682	7.35e-05
3694	9.6e-05
3706	9.3e-05
3718	9.45e-05
3730	6.45e-05
3742	4.2e-05
3754	7.5e-05
3766	9.15e-05
3778	7.05e-05
3790	0.0001185
3802	5.85e-05
3814	4.95e-05
3826	0.000105
3838	8.1e-05
