Infrared Spectrum: ANTHRAFLAVIC ACID
Formula: C14 H8 O4
CAS: 84-60-6
State: SOLID (SPLIT MULL), FLUOROLUBE FOR 3800-1330 CM^-^1, NUJOL FOR 1330-450 CM^-^1
Melting point: MORE THAN 330 C
Class: COBLENTZ III
Instrument: DOW KBr FOREPRISM-GRATING
Instrument parameters: BLAZED AT 3.5, 12.0, 20.0 MICRON AND CHANGED AT 5.0, 7.5, 14.9 MICRON
Sampling: TRANSMISSION
Resolution: 2
Origin: DOW CHEMICAL COMPANY
1/CM	TRANSMITTANCE
455	0.823
464	0.8274
473	0.8281
482	0.8275
491	0.8263
500	0.8249
509	0.82
518	0.8121
527	0.8095
536	0.8
545	0.7841
554	0.5973
563	0.7692
572	0.6472
581	0.7931
590	0.7835
599	0.7641
608	0.759
617	0.7489
626	0.7439
635	0.7458
644	0.7521
653	0.7641
662	0.7587
671	0.7682
680	0.81
689	0.8186
698	0.8104
707	0.688
716	0.7021
725	0.5986
734	0.6147
743	0.6214
752	0.6765
761	0.8459
770	0.8475
779	0.8547
788	0.8565
797	0.8494
806	0.8483
815	0.8486
824	0.8344
833	0.6871
842	0.7951
851	0.8054
860	0.8097
869	0.7693
878	0.5338
887	0.6123
896	0.7874
905	0.8493
914	0.8374
923	0.829
932	0.8258
941	0.8168
950	0.8083
959	0.798
968	0.7898
977	0.7953
986	0.7847
995	0.7408
1004	0.7918
1013	0.7775
1022	0.7594
1031	0.739
1040	0.7368
1049	0.7403
1058	0.7218
1067	0.6892
1076	0.616
1085	0.6455
1094	0.6939
1103	0.7199
1112	0.7018
1121	0.678
1130	0.6396
1139	0.545
1148	0.4862
1157	0.6293
1166	0.6205
1175	0.5748
1184	0.5375
1193	0.4978
1202	0.4581
1211	0.4314
1220	0.4092
1229	0.3793
1238	0.2585
1247	0.375
1256	0.5382
1265	0.457
1274	0.3702
1283	0.3119
1292	0.2211
1301	0.2225
1310	0.2687
1319	0.1487
1328	0.1428
1337	0.3128
1346	0.5114
1355	0.6819
1364	0.6625
1373	0.6555
1382	0.6131
1391	0.6465
1400	0.6938
1409	0.719
1418	0.6975
1427	0.661
1436	0.5997
1445	0.5018
1454	0.6869
1463	0.6817
1472	0.6638
1481	0.6606
1490	0.6282
1499	0.634
1508	0.6197
1517	0.5705
1526	0.5192
1535	0.451
1544	0.3675
1553	0.2995
1562	0.2564
1571	0.3432
1580	0.3973
1589	0.4287
1598	0.5917
1607	0.8142
1616	0.8478
1625	0.8178
1634	0.7431
1643	0.6632
1652	0.5586
1661	0.4322
1670	0.68
1679	0.8804
1688	0.8557
1697	0.8383
1706	0.8475
1715	0.8537
1724	0.8451
1733	0.8354
1742	0.825
1751	0.8154
1760	0.8058
1769	0.7953
1778	0.785
1787	0.785
1796	0.7837
1805	0.7788
1814	0.7745
1823	0.7701
1832	0.7655
1841	0.7605
1850	0.754
1859	0.7475
1868	0.7445
1877	0.7428
1886	0.7404
1895	0.7372
1904	0.7328
1913	0.7278
1922	0.7221
1931	0.7137
1940	0.718
1949	0.7165
1958	0.7126
1967	0.7098
1976	0.7037
1985	0.6981
1994	0.6992
2003	0.7143
2012	0.7105
2021	0.7045
2030	0.6965
2039	0.6908
2048	0.6855
2057	0.6811
2066	0.6793
2075	0.6774
2084	0.6736
2093	0.6697
2102	0.6661
2111	0.6625
2120	0.6593
2129	0.6561
2138	0.6532
2147	0.6499
2156	0.6454
2165	0.6408
2174	0.6379
2183	0.6353
2192	0.6326
2201	0.629
2210	0.6254
2219	0.6198
2228	0.6138
2237	0.6071
2246	0.6009
2255	0.595
2264	0.5905
2273	0.586
2282	0.5825
2291	0.5791
2300	0.576
2309	0.5731
2318	0.5702
2327	0.5681
2336	0.566
2345	0.565
2354	0.5645
2363	0.5655
2372	0.565
2381	0.5622
2390	0.5602
2399	0.5585
2408	0.5572
2417	0.5562
2426	0.5554
2435	0.5545
2444	0.5539
2453	0.5536
2462	0.5534
2471	0.5531
2480	0.5526
2489	0.551
2498	0.5497
2507	0.5481
2516	0.546
2525	0.5441
2534	0.5416
2543	0.5393
2552	0.5386
2561	0.5379
2570	0.5369
2579	0.5357
2588	0.5358
2597	0.5355
2606	0.5344
2615	0.5321
2624	0.5294
2633	0.5268
2642	0.5248
2651	0.5223
2660	0.5197
2669	0.5174
2678	0.5156
2687	0.5138
2696	0.5118
2705	0.5094
2714	0.5071
2723	0.5052
2732	0.5035
2741	0.5018
2750	0.5002
2759	0.4992
2768	0.4982
2777	0.4966
2786	0.4946
2795	0.4919
2804	0.4892
2813	0.4865
2822	0.4839
2831	0.481
2840	0.4779
2849	0.4746
2858	0.4724
2867	0.4706
2876	0.4678
2885	0.463
2894	0.4588
2903	0.4551
2912	0.4514
2921	0.4462
2930	0.4455
2939	0.4455
2948	0.4459
2957	0.4462
2966	0.4464
2975	0.4465
2984	0.4456
2993	0.4428
3002	0.4391
3011	0.4341
3020	0.4288
3029	0.4249
3038	0.4225
3047	0.42
3056	0.4171
3065	0.4176
3074	0.4167
3083	0.4134
3092	0.4082
3101	0.404
3110	0.401
3119	0.3982
3128	0.395
3137	0.3916
3146	0.3884
3155	0.385
3164	0.3812
3173	0.3776
3182	0.3739
3191	0.37
3200	0.366
3209	0.3623
3218	0.3586
3227	0.3549
3236	0.3512
3245	0.3478
3254	0.3434
3263	0.3384
3272	0.3358
3281	0.3359
3290	0.3384
3299	0.343
3308	0.3482
3317	0.357
3326	0.3698
3335	0.3821
3344	0.3932
3353	0.406
3362	0.4204
3371	0.4345
3380	0.4487
3389	0.4645
3398	0.4812
3407	0.499
3416	0.5123
3425	0.5187
3434	0.5239
3443	0.527
3452	0.5268
3461	0.5256
3470	0.5248
3479	0.5239
3488	0.5226
3497	0.5212
3506	0.5195
3515	0.5175
3524	0.5155
3533	0.5134
3542	0.511
3551	0.5085
3560	0.505
3569	0.5018
3578	0.502
3587	0.5025
3596	0.5031
3605	0.5012
3614	0.4991
3623	0.4967
3632	0.4945
3641	0.492
3650	0.4895
3659	0.487
3668	0.4843
3677	0.4815
3686	0.4787
3695	0.4758
3704	0.4736
3713	0.4718
3722	0.47
3731	0.4682
3740	0.466
3749	0.4638
3758	0.4616
3767	0.459
3776	0.4557
3785	0.4618
3794	0.4773
