Infrared Spectrum: 1,2-BENZENEDICARBOXYLIC ACID, BUTYL OCTYL ESTER
Formula: C20 H30 O4
CAS: 84-78-6
State: SOLUTION (10% IN CCl4 FOR 3800-1330, 10% IN CS2 FOR 1330-420 CM^-^1) VS. SOLVENT
Class: COBLENTZ III
Instrument: PERKIN-ELMER 180
Sampling: TRANSMISSION
Path length: 0.011, 0.011 CM
Resolution: 4
Origin: DOW CHEMICAL COMPANY
1/CM	TRANSMITTANCE
421.293	0.912
430.418	0.927
439.544	0.933
448.669	0.935
457.795	0.941
466.92	0.932
476.046	0.92
485.171	0.911
494.297	0.902
503.422	0.91
512.548	0.925
521.673	0.929
530.799	0.924
539.924	0.923
549.05	0.92
558.175	0.921
567.301	0.905
576.426	0.897
585.552	0.931
594.677	0.942
603.803	0.945
612.928	0.952
622.054	0.955
631.179	0.953
640.305	0.925
649.43	0.802
658.556	0.935
667.681	0.941
676.807	0.926
685.932	0.814
695.058	0.676
704.183	0.647
713.309	0.79
722.434	0.6741
731.56	0.4241
740.685	0.2849
749.811	0.572
758.936	0.656
768.062	0.639
777.187	0.661
786.313	0.694
795.438	0.7699
804.564	0.847
813.689	0.864
822.815	0.863
831.94	0.862
841.066	0.864
850.191	0.857
859.317	0.837
868.442	0.838
877.568	0.851
886.693	0.873
895.819	0.849
904.944	0.814
914.07	0.83
923.195	0.781
932.321	0.742
941.446	0.667
950.572	0.619
959.697	0.598
968.823	0.73
977.948	0.713
987.074	0.736
996.199	0.759
1005.32	0.823
1014.45	0.822
1023.58	0.791
1032.7	0.639
1041.83	0.606
1050.95	0.684
1060.08	0.4378
1069.2	0.08
1078.33	0.3359
1087.45	0.686
1096.58	0.672
1105.7	0.4371
1114.83	0.055
1123.96	0.068
1133.08	0.115
1142.21	0.3441
1151.33	0.519
1160.46	0.6009
1169.58	0.781
1178.71	0.834
1187.83	0.834
1196.96	0.808
1206.09	0.777
1215.21	0.733
1224.34	0.624
1233.46	0.4269
1242.59	0.1889
1251.71	0.049
1260.84	0.007
1269.96	0.007
1279.09	0.008
1288.21	0.012
1297.34	0.095
1306.47	0.246
1315.59	0.439
1324.72	0.601
1333.84	0.653
1342.97	0.655
1352.09	0.712
1361.22	0.73
1370.34	0.6011
1379.47	0.422
1388.6	0.601
1397.72	0.79
1406.85	0.83
1415.97	0.835
1425.1	0.817
1434.22	0.734
1443.35	0.493
1452.47	0.3571
1461.6	0.257
1470.72	0.588
1479.85	0.713
1488.98	0.748
1498.1	0.837
1507.23	0.856
1516.35	0.862
1525.48	0.869
1534.6	0.878
1543.73	0.88
1552.85	0.87
1561.98	0.859
1571.11	0.796
1580.23	0.668
1589.36	0.793
1598.48	0.667
1607.61	0.845
1616.73	0.861
1625.86	0.863
1634.98	0.863
1644.11	0.859
1653.23	0.848
1662.36	0.831
1671.49	0.797
1680.61	0.728
1689.74	0.665
1698.86	0.5739
1707.99	0.3431
1717.11	0.017
1726.24	0.006
1735.36	0.028
1744.49	0.207
1753.61	0.565
1762.74	0.716
1771.87	0.785
1780.99	0.824
1790.12	0.853
1799.24	0.867
1808.37	0.879
1817.49	0.883
1826.62	0.88
1835.74	0.876
1844.87	0.899
1854	0.9
1863.12	0.898
1872.25	0.907
1881.37	0.91
1890.5	0.91
1899.62	0.908
1908.75	0.906
1917.87	0.909
1927	0.903
1936.12	0.885
1945.25	0.904
1954.38	0.912
1963.5	0.9
1972.63	0.908
1981.75	0.919
1990.88	0.921
2000	0.918
2009.13	0.9115
2018.25	0.912
2027.38	0.914
2036.51	0.911
2045.63	0.9159
2054.76	0.9151
2063.88	0.9135
2073.01	0.9121
2082.13	0.9115
2091.26	0.911
2100.38	0.91
2109.51	0.91
2118.63	0.912
2127.76	0.9111
2136.89	0.911
2146.01	0.9139
2155.14	0.917
2164.26	0.9149
2173.39	0.919
2182.51	0.92
2191.64	0.9159
2200.76	0.913
2209.89	0.9144
2219.02	0.917
2228.14	0.914
2237.27	0.914
2246.39	0.9143
2255.52	0.918
2264.64	0.9157
2273.77	0.9188
2282.89	0.9193
2292.02	0.923
2301.14	0.9227
2310.27	0.9192
2319.4	0.9158
2328.52	0.908
2337.65	0.9143
2346.77	0.9116
2355.9	0.913
2365.02	0.9122
2374.15	0.909
2383.27	0.907
2392.4	0.908
2401.52	0.9077
2410.65	0.9102
2419.78	0.913
2428.9	0.918
2438.03	0.9227
2447.15	0.922
2456.28	0.9227
2465.4	0.9258
2474.53	0.9233
2483.65	0.922
2492.78	0.922
2501.91	0.9208
2511.03	0.918
2520.16	0.9147
2529.28	0.9163
2538.41	0.919
2547.53	0.9123
2556.66	0.911
2565.78	0.9084
2574.91	0.9069
2584.03	0.9044
2593.16	0.901
2602.29	0.9026
2611.41	0.905
2620.54	0.9066
2629.66	0.908
2638.79	0.908
2647.91	0.9059
2657.04	0.9034
2666.16	0.897
2675.29	0.9
2684.42	0.902
2693.54	0.9014
2702.67	0.8999
2711.79	0.8924
2720.92	0.8848
2730.04	0.8689
2739.17	0.8762
2748.29	0.885
2757.42	0.886
2766.54	0.886
2775.67	0.884
2784.8	0.8755
2793.92	0.862
2803.05	0.845
2812.17	0.824
2821.3	0.7877
2830.42	0.7364
2839.55	0.6151
2848.67	0.4027
2857.8	0.1845
2866.92	0.2024
2876.05	0.2132
2885.18	0.3486
2894.3	0.2774
2903.43	0.2191
2912.55	0.1349
2921.68	0.0611
2930.8	0.0502
2939.93	0.1072
2949.05	0.0744
2958.18	0.024
2967.31	0.0777
2976.43	0.325
2985.56	0.5545
2994.68	0.6971
3003.81	0.7581
3012.93	0.8109
3022.06	0.828
3031.18	0.836
3040.31	0.8531
3049.43	0.8496
3058.56	0.8286
3067.69	0.8109
3076.81	0.8286
3085.94	0.8787
3095.06	0.8943
3104.19	0.9008
3113.31	0.9069
3122.44	0.9126
3131.56	0.9173
3140.69	0.9142
3149.82	0.9133
3158.94	0.915
3168.07	0.914
3177.19	0.9148
3186.32	0.9193
3195.44	0.9247
3204.57	0.9262
3213.69	0.9297
3222.82	0.933
3231.94	0.933
3241.07	0.9322
3250.2	0.934
3259.32	0.9362
3268.45	0.938
3277.57	0.939
3286.7	0.94
3295.82	0.94
3304.95	0.94
3314.07	0.939
3323.2	0.939
3332.33	0.941
3341.45	0.941
3350.58	0.942
3359.7	0.942
3368.83	0.943
3377.95	0.943
3387.08	0.942
3396.2	0.941
3405.33	0.9388
3414.45	0.9308
3423.58	0.9185
3432.71	0.91
3441.83	0.9153
3450.96	0.9254
3460.08	0.9362
3469.21	0.9432
3478.33	0.9461
3487.46	0.9486
3496.58	0.95
3505.71	0.951
3514.83	0.95
3523.96	0.9484
3533.09	0.949
3542.21	0.9475
3551.34	0.946
3560.46	0.944
3569.59	0.95
3578.71	0.9565
3587.84	0.949
3596.96	0.9465
3606.09	0.946
3615.22	0.943
3624.34	0.942
3633.47	0.943
3642.59	0.945
3651.72	0.9445
3660.84	0.942
3669.97	0.94
3679.09	0.939
3688.22	0.939
3697.34	0.9409
3706.47	0.943
3715.6	0.943
3724.72	0.944
3733.85	0.944
3742.97	0.944
3752.1	0.944
3761.22	0.9454
3770.35	0.947
3779.47	0.9476
3788.6	0.9461
3797.73	0.946
3806.85	0.9469
3815.98	0.948
3825.1	0.947
3834.23	0.946
3843.35	0.946
3852.48	0.9463
3861.6	0.9478
3870.73	0.948
3879.85	0.948
3888.98	0.947
3898.11	0.947
3907.23	0.947
3916.36	0.947
3925.48	0.947
3934.61	0.947
3943.73	0.947
3952.86	0.947
3961.98	0.947
3971.11	0.947
3980.24	0.947
3989.36	0.947
3998.49	0.947
