Infrared Spectrum: 1,2-BENZENEDICARBOXYLIC ACID, DINONYL ESTER
Formula: C26 H42 O4
CAS: 84-76-4
State: SOLUTION (10% IN CCl4 FOR 4000-1330, 10% IN CS2 FOR 1330-420 CM^-^1) VS. SOLVENT
Class: COBLENTZ III
Instrument: PERKIN-ELMER 180
Sampling: TRANSMISSION
Path length: 0.011, 0.011 CM
Resolution: 4
Origin: DOW CHEMICAL COMPANY
1/CM	TRANSMITTANCE
420.279	0.923
429.404	0.932
438.53	0.936
447.655	0.936
456.781	0.931
465.906	0.926
475.032	0.921
484.157	0.926
493.283	0.929
502.408	0.923
511.534	0.923
520.659	0.921
529.785	0.923
538.91	0.924
548.036	0.92
557.161	0.892
566.287	0.888
575.412	0.915
584.538	0.948
593.663	0.954
602.789	0.955
611.914	0.955
621.04	0.953
630.165	0.946
639.291	0.91
648.416	0.824
657.542	0.935
666.667	0.937
675.793	0.92
684.918	0.815
694.044	0.693
703.169	0.6498
712.295	0.702
721.42	0.614
730.546	0.468
739.671	0.2789
748.797	0.591
757.922	0.718
767.048	0.748
776.173	0.75
785.299	0.761
794.424	0.8339
803.55	0.884
812.675	0.887
821.801	0.889
830.926	0.885
840.052	0.883
849.177	0.871
858.303	0.864
867.428	0.866
876.554	0.852
885.679	0.842
894.805	0.821
903.93	0.817
913.056	0.857
922.181	0.861
931.307	0.857
940.432	0.811
949.558	0.714
958.683	0.633
967.809	0.69
976.934	0.79
986.06	0.832
995.185	0.842
1004.31	0.835
1013.44	0.795
1022.56	0.765
1031.69	0.609
1040.81	0.605
1049.94	0.627
1059.06	0.4299
1068.19	0.165
1077.31	0.3109
1086.44	0.6219
1095.57	0.69
1104.69	0.514
1113.82	0.121
1122.94	0.071
1132.07	0.098
1141.19	0.3211
1150.32	0.648
1159.44	0.698
1168.57	0.777
1177.7	0.783
1186.82	0.793
1195.95	0.782
1205.07	0.761
1214.2	0.745
1223.32	0.664
1232.45	0.503
1241.57	0.258
1250.7	0.0901
1259.82	0.021
1268.95	0.009
1278.08	0.006
1287.2	0.01
1296.33	0.08
1305.45	0.271
1314.58	0.458
1323.7	0.558
1332.83	0.646
1341.95	0.718
1351.08	0.726
1360.21	0.731
1369.33	0.657
1378.46	0.564
1387.58	0.664
1396.71	0.812
1405.83	0.831
1414.96	0.827
1424.08	0.769
1433.21	0.669
1442.33	0.494
1451.46	0.398
1460.59	0.315
1469.71	0.553
1478.84	0.736
1487.96	0.787
1497.09	0.86
1506.21	0.875
1515.34	0.876
1524.46	0.888
1533.59	0.895
1542.72	0.894
1551.84	0.886
1560.97	0.871
1570.09	0.786
1579.22	0.7251
1588.34	0.815
1597.47	0.6903
1606.59	0.865
1615.72	0.875
1624.84	0.876
1633.97	0.874
1643.1	0.867
1652.22	0.858
1661.35	0.845
1670.47	0.807
1679.6	0.747
1688.72	0.69
1697.85	0.6039
1706.97	0.3891
1716.1	0.05
1725.23	0.007
1734.35	0.023
1743.48	0.2071
1752.6	0.603
1761.73	0.74
1770.85	0.795
1779.98	0.831
1789.1	0.859
1798.23	0.878
1807.35	0.888
1816.48	0.893
1825.61	0.89
1834.73	0.892
1843.86	0.902
1852.98	0.907
1862.11	0.909
1871.23	0.919
1880.36	0.922
1889.48	0.922
1898.61	0.92
1907.74	0.918
1916.86	0.919
1925.99	0.914
1935.11	0.9
1944.24	0.917
1953.36	0.921
1962.49	0.91
1971.61	0.921
1980.74	0.926
1989.86	0.926
1998.99	0.921
2008.12	0.917
2017.24	0.915
2026.37	0.912
2035.49	0.9145
2044.62	0.918
2053.74	0.919
2062.87	0.917
2071.99	0.9155
2081.12	0.914
2090.25	0.915
2099.37	0.9121
2108.5	0.9154
2117.62	0.919
2126.75	0.9156
2135.87	0.9169
2145	0.92
2154.12	0.917
2163.25	0.921
2172.37	0.921
2181.5	0.9206
2190.63	0.9209
2199.75	0.9196
2208.88	0.921
2218	0.9203
2227.13	0.918
2236.25	0.9193
2245.38	0.9192
2254.5	0.9203
2263.63	0.922
2272.76	0.9233
2281.88	0.9222
2291.01	0.9216
2300.13	0.9196
2309.26	0.9177
2318.38	0.9132
2327.51	0.9133
2336.63	0.916
2345.76	0.916
2354.88	0.9158
2364.01	0.916
2373.14	0.9158
2382.26	0.917
2391.39	0.915
2400.51	0.916
2409.64	0.915
2418.76	0.9192
2427.89	0.923
2437.01	0.9242
2446.14	0.926
2455.27	0.929
2464.39	0.9273
2473.52	0.9258
2482.64	0.927
2491.77	0.924
2500.89	0.922
2510.02	0.9198
2519.14	0.918
2528.27	0.917
2537.39	0.915
2546.52	0.9148
2555.65	0.9133
2564.77	0.91
2573.9	0.908
2583.02	0.907
2592.15	0.906
2601.27	0.905
2610.4	0.904
2619.52	0.903
2628.65	0.902
2637.78	0.9009
2646.9	0.8964
2656.03	0.8899
2665.15	0.8864
2674.28	0.885
2683.4	0.8876
2692.53	0.8921
2701.65	0.8944
2710.78	0.8909
2719.9	0.8795
2729.03	0.876
2738.16	0.8795
2747.28	0.878
2756.41	0.876
2765.53	0.876
2774.66	0.8724
2783.78	0.858
2792.91	0.8445
2802.03	0.82
2811.16	0.7901
2820.28	0.7491
2829.41	0.6585
2838.54	0.4771
2847.66	0.1441
2856.79	0.059
2865.91	0.201
2875.04	0.3465
2884.16	0.3034
2893.29	0.2019
2902.41	0.1232
2911.54	0.0481
2920.67	0.007
2929.79	0.0117
2938.92	0.0446
2948.04	0.0644
2957.17	0.0508
2966.29	0.1389
2975.42	0.424
2984.54	0.6047
2993.67	0.7238
3002.79	0.7868
3011.92	0.8248
3021.05	0.8409
3030.17	0.8481
3039.3	0.8636
3048.42	0.8566
3057.55	0.8356
3066.67	0.8253
3075.8	0.8496
3084.92	0.8979
3094.05	0.9078
3103.18	0.9149
3112.3	0.9218
3121.43	0.924
3130.55	0.9248
3139.68	0.9254
3148.8	0.9228
3157.93	0.9283
3167.05	0.926
3176.18	0.9263
3185.3	0.932
3194.43	0.933
3203.56	0.935
3212.68	0.939
3221.81	0.9425
3230.93	0.941
3240.06	0.9427
3249.18	0.945
3258.31	0.9457
3267.43	0.9452
3276.56	0.946
3285.69	0.947
3294.81	0.945
3303.94	0.9492
3313.06	0.9493
3322.19	0.948
3331.31	0.948
3340.44	0.9502
3349.56	0.951
3358.69	0.952
3367.81	0.951
3376.94	0.9521
3386.07	0.952
3395.19	0.9509
3404.32	0.9474
3413.44	0.9419
3422.57	0.9322
3431.69	0.9249
3440.82	0.9256
3449.94	0.9353
3459.07	0.9416
3468.2	0.952
3477.32	0.9566
3486.45	0.96
3495.57	0.9606
3504.7	0.961
3513.82	0.961
3522.95	0.96
3532.07	0.9595
3541.2	0.958
3550.32	0.957
3559.45	0.958
3568.58	0.9605
3577.7	0.969
3586.83	0.9595
3595.95	0.956
3605.08	0.955
3614.2	0.953
3623.33	0.952
3632.45	0.95
3641.58	0.9485
3650.71	0.95
3659.83	0.952
3668.96	0.95
3678.08	0.9466
3687.21	0.9469
3696.33	0.949
3705.46	0.952
3714.58	0.95
3723.71	0.952
3732.83	0.953
3741.96	0.952
3751.09	0.951
3760.21	0.952
3769.34	0.953
3778.46	0.953
3787.59	0.953
3796.71	0.953
3805.84	0.955
3814.96	0.955
3824.09	0.956
3833.22	0.955
3842.34	0.9557
3851.47	0.954
3860.59	0.9537
3869.72	0.955
3878.84	0.9543
3887.97	0.956
3897.09	0.954
3906.22	0.956
3915.34	0.956
3924.47	0.953
3933.6	0.9533
3942.72	0.956
3951.85	0.9543
3960.97	0.956
3970.1	0.9537
3979.22	0.952
3988.35	0.952
3997.47	0.9518
