Infrared Spectrum: Phthalic acid didecyl ester
Formula: C 28 H 46 O 4
CAS: 84-77-5
State: gas
Origin: EPA-IR VAPOR PHASE LIBRARY
1/CM	ABSORBANCE
549.8	0.0008225
559.445	0.0009353
569.09	0.0009166
578.734	0.0008663
588.379	0.0006888
598.024	0.00057876
607.669	0.000523958
617.313	0.0006507
626.958	0.00054715
636.603	0.00060693
646.248	0.0011775
655.893	0.0010698
665.537	0.00069
675.182	0.0008137
684.827	0.0013971
694.472	0.002706
704.116	0.003216
713.761	0.003086
723.406	0.003866
733.051	0.005936
742.695	0.007506
752.34	0.005316
761.985	0.003616
771.63	0.003106
781.275	0.002976
790.919	0.002446
800.564	0.001836
810.209	0.001676
819.854	0.001536
829.498	0.001626
839.143	0.001726
848.788	0.001626
858.433	0.001576
868.078	0.001556
877.722	0.001586
887.367	0.001556
897.012	0.001556
906.657	0.001576
916.301	0.001726
925.946	0.001996
935.591	0.002376
945.236	0.003176
954.88	0.004036
964.525	0.004226
974.17	0.003896
983.815	0.003346
993.46	0.002856
1003.1	0.002656
1012.75	0.002936
1022.39	0.003286
1032.04	0.005506
1041.68	0.008896
1051.33	0.008496
1060.97	0.014996
1070.62	0.023226
1080.26	0.013106
1089.91	0.007776
1099.55	0.009466
1109.2	0.018856
1118.84	0.034976
1128.49	0.031766
1138.13	0.020976
1147.78	0.009596
1157.42	0.005886
1167.07	0.004256
1176.71	0.003336
1186.36	0.002976
1196	0.003496
1205.64	0.004526
1215.29	0.005566
1224.93	0.007836
1234.58	0.014096
1244.22	0.024646
1253.87	0.036786
1263.51	0.050476
1273.16	0.055146
1282.8	0.049856
1292.45	0.032536
1302.09	0.017246
1311.74	0.010356
1321.38	0.007276
1331.03	0.005626
1340.67	0.004606
1350.32	0.004566
1359.96	0.004616
1369.61	0.005706
1379.25	0.008296
1388.9	0.007686
1398.54	0.003896
1408.18	0.002716
1417.83	0.002176
1427.47	0.002816
1437.12	0.003736
1446.76	0.006236
1456.41	0.007916
1466.05	0.009726
1475.7	0.006896
1485.34	0.004376
1494.99	0.002716
1504.63	0.001836
1514.28	0.0014936
1523.92	0.0013655
1533.57	0.0012231
1543.21	0.0010599
1552.86	0.0012265
1562.5	0.001536
1572.15	0.002256
1581.79	0.002616
1591.44	0.001966
1601.08	0.002416
1610.73	0.001686
1620.37	0.0014634
1630.01	0.0013884
1639.66	0.0013526
1649.3	0.0013159
1658.95	0.0015073
1668.59	0.001596
1678.24	0.001846
1687.88	0.002296
1697.53	0.003136
1707.17	0.004756
1716.82	0.007456
1726.46	0.015406
1736.11	0.036206
1745.75	0.054146
1755.4	0.026996
1765.04	0.011126
1774.69	0.005796
1784.33	0.003476
1793.98	0.002406
1803.62	0.001846
1813.27	0.001626
1822.91	0.0014502
1832.55	0.0013435
1842.2	0.0010945
1851.84	0.0010739
1861.49	0.0010093
1871.13	0.0008984
1880.78	0.0008959
1890.42	0.0008744
1900.07	0.0008588
1909.71	0.0009262
1919.36	0.0008316
1929	0.0010537
1938.65	0.0010696
1948.29	0.0008913
1957.94	0.0009426
1967.58	0.000917
1977.23	0.0007804
1986.87	0.0007018
1996.52	0.0007198
2006.16	0.0007203
2015.81	0.000691
2025.45	0.000713
2035.1	0.0006899
2044.74	0.000715
2054.38	0.0007423
2064.03	0.0007448
2073.67	0.0007736
2083.32	0.0008277
2092.96	0.0008123
2102.61	0.0008361
2112.25	0.00084
2121.9	0.0007735
2131.54	0.0007789
2141.19	0.0006528
2150.83	0.0006904
2160.48	0.0006744
2170.12	0.0006389
2179.77	0.0006985
2189.41	0.0006599
2199.06	0.0006911
2208.7	0.0006569
2218.35	0.0007217
2227.99	0.0006733
2237.64	0.0006966
2247.28	0.0007049
2256.92	0.000656
2266.57	0.0007104
2276.21	0.0006848
2285.86	0.000687
2295.5	0.0007094
2305.15	0.0006898
2314.79	0.000671
2324.44	0.0007714
2334.08	0.0006796
2343.73	0.0006283
2353.37	0.0006336
2363.02	0.0006178
2372.66	0.0006437
2382.31	0.0007937
2391.95	0.0007279
2401.6	0.0008088
2411.24	0.0007839
2420.89	0.0007048
2430.53	0.0006322
2440.18	0.0007001
2449.82	0.0006348
2459.47	0.0006399
2469.11	0.0006458
2478.75	0.0006462
2488.4	0.0006671
2498.04	0.0006976
2507.69	0.0006952
2517.33	0.0007905
2526.98	0.0007879
2536.62	0.0008262
2546.27	0.000808
2555.91	0.0008335
2565.56	0.0008834
2575.2	0.0008509
2584.85	0.0009454
2594.49	0.0009732
2604.14	0.0009558
2613.78	0.0009306
2623.43	0.000927
2633.07	0.0009761
2642.72	0.0009446
2652.36	0.0009072
2662.01	0.0009951
2671.65	0.001024
2681.29	0.001006
2690.94	0.0010165
2700.58	0.0010774
2710.23	0.0011482
2719.87	0.001315
2729.52	0.0013927
2739.16	0.001546
2748.81	0.0014272
2758.45	0.0014014
2768.1	0.0014643
2777.74	0.001586
2787.39	0.001606
2797.03	0.001826
2806.68	0.002136
2816.32	0.002546
2825.97	0.003216
2835.61	0.004166
2845.26	0.006366
2854.9	0.010406
2864.55	0.014606
2874.19	0.018856
2883.84	0.021546
2893.48	0.018976
2903.12	0.021176
2912.77	0.027146
2922.41	0.032636
2932.06	0.036516
2941.7	0.035226
2951.35	0.033186
2960.99	0.046996
2970.64	0.046276
2980.28	0.023116
2989.93	0.011636
2999.57	0.006606
3009.22	0.004236
3018.86	0.003146
3028.51	0.002746
3038.15	0.002656
3047.8	0.002326
3057.44	0.002366
3067.09	0.003126
3076.73	0.004626
3086.38	0.002806
3096.02	0.001716
3105.67	0.001626
3115.31	0.0013498
3124.95	0.0012012
3134.6	0.0011658
3144.24	0.0011944
3153.89	0.0011981
3163.53	0.0012077
3173.18	0.0011035
3182.82	0.0010148
3192.47	0.0009385
3202.11	0.0008988
3211.76	0.0008103
3221.4	0.0006607
3231.05	0.0007111
3240.69	0.0007476
3250.34	0.0006274
3259.98	0.00056201
3269.63	0.00058716
3279.27	0.00057927
3288.92	0.0006946
3298.56	0.00057604
3308.21	0.00059114
3317.85	0.00060167
3327.49	0.00059589
3337.14	0.00053324
3346.78	0.00057279
3356.43	0.0005454
3366.07	0.0004639
3375.72	0.0006186
3385.36	0.00053239
3395.01	0.000476
3404.65	0.000407
3414.3	0.0004551
3423.94	0.0004615
3433.59	0.0006394
3443.23	0.00055097
3452.88	0.0006591
3462.52	0.0008182
3472.17	0.0007991
3481.81	0.0007559
3491.46	0.0005907
3501.1	0.000624
3510.75	0.0004
3520.39	0.0004253
3530.04	0.000391
3539.68	0.000414
3549.32	0.0004217
3558.97	0.000367
3568.61	7e-05
3578.26	0.000294
3587.9	7.9e-05
3597.55	0.000334
3607.19	0.000209
3616.84	0.000225
3626.48	0.000232
3636.13	0.000414
3645.77	0.0004172
3655.42	0.000412
3665.06	0.00051032
3674.71	0.000219
3684.35	0.00038
3694	0.0004335
3703.64	0.000392
3713.29	0.00026
3722.93	0.000232
3732.58	0.000234
3742.22	0.000257
3751.86	0.000161
3761.51	0.0004922
3771.15	0.000525703
3780.8	0.000371
3790.44	0.0004926
3800.09	0.000386
3809.73	0.0004715
3819.38	0.0004738
3829.02	0.000329
3838.67	0.00037
3848.31	0.0005049
3857.96	0.000433
3867.6	0.000327
3877.25	0.000393
3886.89	0.000212
3896.54	0.0004869
3906.18	0.000298
3915.83	0.000366
3925.47	0.0004363
3935.12	0.000522241
3944.76	0.0004746
3954.41	0.000645
3964.05	0.0005418
3973.69	0.000365
3983.34	0.000352
3992.98	0.0004973
