Infrared Spectrum: Ethylphthalyl ethyl glycolate
Formula: C14 H16 O6
CAS: 84-72-0
State: SOLUTION (10% CCl4 FOR 2.7-7.5, CS2 FOR 7.5-26 MICRON) VS SOLVENT
Class: COBLENTZ III
Instrument: DOW KBr FOREPRISM-GRATING
Instrument parameters: BLAZED AT 3.5, 12.0, 20.0 MICRON AND CHANGED AT 5.0, 7.5, 14.9 MICRON
Sampling: TRANSMISSION
Path length: 0.011 CM, 0.011 CM
Resolution: 2
Origin: DOW CHEMICAL COMPANY
1/CM	TRANSMITTANCE
3794	0.8695
3785	0.8699
3776	0.8704
3767	0.8708
3758	0.8709
3749	0.8709
3740	0.8713
3731	0.8716
3722	0.8718
3713	0.8717
3704	0.871
3695	0.8682
3686	0.8643
3677	0.861
3668	0.8602
3659	0.8621
3650	0.864
3641	0.8654
3632	0.866
3623	0.8664
3614	0.8661
3605	0.8657
3596	0.8653
3587	0.8642
3578	0.8605
3569	0.8564
3560	0.8525
3551	0.85
3542	0.8486
3533	0.8471
3524	0.846
3515	0.8449
3506	0.8438
3497	0.8427
3488	0.8418
3479	0.8412
3470	0.8404
3461	0.8403
3452	0.8403
3443	0.842
3434	0.8441
3425	0.8477
3416	0.8524
3407	0.8581
3398	0.8628
3389	0.8666
3380	0.8688
3371	0.8684
3362	0.866
3353	0.8625
3344	0.8589
3335	0.8558
3326	0.8527
3317	0.8496
3308	0.8466
3299	0.8458
3290	0.845
3281	0.8446
3272	0.8443
3263	0.8439
3254	0.8435
3245	0.8428
3236	0.8421
3227	0.8418
3218	0.8409
3209	0.8394
3200	0.838
3191	0.8366
3182	0.8354
3173	0.8356
3164	0.8366
3155	0.8371
3146	0.8378
3137	0.8378
3128	0.8375
3119	0.8359
3110	0.8342
3101	0.8312
3092	0.8247
3083	0.7891
3074	0.7428
3065	0.7508
3056	0.7672
3047	0.7828
3038	0.785
3029	0.7745
3020	0.7534
3011	0.6341
3002	0.4776
2993	0.321
2984	0.2803
2975	0.4694
2966	0.4832
2957	0.5031
2948	0.5415
2939	0.521
2930	0.6038
2921	0.6665
2912	0.6539
2903	0.6251
2894	0.686
2885	0.7414
2876	0.7378
2867	0.7365
2858	0.7831
2849	0.8025
2840	0.8137
2831	0.8215
2822	0.827
2813	0.8315
2804	0.8374
2795	0.8454
2786	0.8492
2777	0.8488
2768	0.8484
2759	0.8482
2750	0.8491
2741	0.8501
2732	0.8517
2723	0.8535
2714	0.8568
2705	0.8592
2696	0.8611
2687	0.8618
2678	0.8624
2669	0.8628
2660	0.863
2651	0.8632
2642	0.8634
2633	0.8628
2624	0.8621
2615	0.8613
2606	0.8599
2597	0.8584
2588	0.857
2579	0.8554
2570	0.8537
2561	0.8536
2552	0.8541
2543	0.8552
2534	0.8568
2525	0.8585
2516	0.8604
2507	0.8624
2498	0.8645
2489	0.8665
2480	0.8687
2471	0.8708
2462	0.8725
2453	0.8738
2444	0.8747
2435	0.8739
2426	0.8716
2417	0.8678
2408	0.8651
2399	0.8645
2390	0.8654
2381	0.867
2372	0.8698
2363	0.8716
2354	0.8728
2345	0.8737
2336	0.8739
2327	0.8735
2318	0.872
2309	0.8709
2300	0.8709
2291	0.871
2282	0.8712
2273	0.8715
2264	0.8718
2255	0.8721
2246	0.8735
2237	0.8762
2228	0.879
2219	0.8825
2210	0.8854
2201	0.8867
2192	0.8858
2183	0.8868
2174	0.8808
2165	0.8738
2156	0.8695
2147	0.8684
2138	0.8674
2129	0.8665
2120	0.8655
2111	0.8649
2102	0.8658
2093	0.8668
2084	0.8683
2075	0.8695
2066	0.8725
2057	0.875
2048	0.877
2039	0.8787
2030	0.8786
2021	0.8787
2012	0.8788
2003	0.8778
1994	0.8747
1985	0.8712
1976	0.8657
1967	0.8562
1958	0.8617
1949	0.856
1940	0.8323
1931	0.8473
1922	0.8612
1913	0.8641
1904	0.8618
1895	0.8523
1886	0.8484
1877	0.8463
1868	0.8368
1859	0.8331
1850	0.8252
1841	0.8031
1832	0.8008
1823	0.7974
1814	0.785
1805	0.763
1796	0.7304
1787	0.619
1778	0.4548
1769	0.1038
1760	0.0267
1751	0.0194
1742	0.0071
1733	0.0056
1724	0.0081
1715	0.0177
1706	0.2696
1697	0.437
1688	0.5541
1679	0.6465
1670	0.7175
1661	0.7628
1652	0.7775
1643	0.7843
1634	0.7868
1625	0.7878
1616	0.7872
1607	0.7701
1598	0.5912
1589	0.7301
1580	0.5255
1571	0.7441
1562	0.786
1553	0.8143
1544	0.8317
1535	0.8339
1526	0.8214
1517	0.8144
1508	0.8033
1499	0.7764
1490	0.5824
1481	0.4717
1472	0.5546
1463	0.5376
1454	0.5531
1445	0.4469
1436	0.5543
1427	0.4112
1418	0.5329
1409	0.5517
1400	0.4073
1391	0.3834
1382	0.1454
1373	0.283
1364	0.3826
1355	0.5112
1346	0.655
1337	0.6578
1328	0.6328
1319	0.5007
1310	0.2187
1301	0.0525
1292	0.0183
1283	0.0035
1274	0.001
1265	0.0061
1256	0.0321
1247	0.0852
1238	0.2041
1229	0.3284
1220	0.2368
1211	0.0839
1202	0.0103
1193	0.1585
1184	0.376
1175	0.4059
1166	0.4405
1157	0.4639
1148	0.4256
1139	0.0846
1130	0.0125
1121	0.0104
1112	0.0907
1103	0.3247
1094	0.2877
1085	0.1344
1076	0.0406
1067	0.378
1058	0.5622
1049	0.4674
1040	0.2192
1031	0.2931
1022	0.391
1013	0.4274
1004	0.464
995	0.6216
986	0.7478
977	0.796
968	0.8064
959	0.7214
950	0.7918
941	0.7836
932	0.7792
923	0.7848
914	0.7914
905	0.8231
896	0.8252
887	0.7861
878	0.7621
869	0.7132
860	0.6685
851	0.6875
842	0.7793
833	0.7882
824	0.7189
815	0.7214
806	0.7461
797	0.6442
788	0.5732
779	0.5493
770	0.5544
761	0.495
752	0.3244
743	0.1654
734	0.4029
725	0.5938
716	0.6096
707	0.553
698	0.5419
689	0.6904
680	0.756
671	0.7912
662	0.818
653	0.7367
644	0.7371
635	0.7818
626	0.815
617	0.822
608	0.8239
599	0.8231
590	0.8106
581	0.7801
572	0.7357
563	0.7096
554	0.7469
545	0.7803
536	0.7949
527	0.8055
518	0.8157
509	0.8218
500	0.8233
491	0.8178
482	0.8086
473	0.8008
464	0.7955
455	0.7928
446	0.7917
437	0.791
428	0.7911
419	0.7935
410	0.795
401	0.7967
