Infrared Spectrum: Di-2-ethylhexyl hexahydrophthalate
Formula: C24 H44 O4
CAS: 84-71-9
State: SOLUTION (10% CCl4 FOR 2.7-7.5, 10% CS2 FOR 7.5-26 MICRON) VS SOLVENT
Class: COBLENTZ III
Instrument: DOW KBr FOREPRISM-GRATING
Instrument parameters: BLAZED AT 3.5, 12.0, 20.0 MICRON AND CHANGED AT 5.0, 7.5, 14.9 MICRON
Sampling: TRANSMISSION
Path length: 0.011 CM, 0.011 CM
Resolution: 2
Origin: DOW CHEMICAL COMPANY
1/CM	TRANSMITTANCE
3798	0.8643
3789	0.8645
3780	0.8647
3771	0.8649
3762	0.8647
3753	0.8645
3744	0.8646
3735	0.8649
3726	0.8652
3717	0.8652
3708	0.865
3699	0.8647
3690	0.8644
3681	0.8651
3672	0.8659
3663	0.8666
3654	0.8671
3645	0.8677
3636	0.8682
3627	0.8687
3618	0.8693
3609	0.8699
3600	0.871
3591	0.8721
3582	0.8739
3573	0.8758
3564	0.8778
3555	0.8783
3546	0.8788
3537	0.8791
3528	0.8809
3519	0.883
3510	0.8848
3501	0.8858
3492	0.8868
3483	0.8875
3474	0.8875
3465	0.885
3456	0.8812
3447	0.8764
3438	0.8678
3429	0.8666
3420	0.8701
3411	0.8774
3402	0.8844
3393	0.8895
3384	0.8918
3375	0.8938
3366	0.8954
3357	0.897
3348	0.8984
3339	0.8997
3330	0.9008
3321	0.9014
3312	0.902
3303	0.9023
3294	0.9028
3285	0.9028
3276	0.9032
3267	0.9033
3258	0.9037
3249	0.9039
3240	0.9036
3231	0.9021
3222	0.8999
3213	0.8991
3204	0.898
3195	0.8944
3186	0.8921
3177	0.8903
3168	0.8892
3159	0.8881
3150	0.8875
3141	0.887
3132	0.8862
3123	0.8851
3114	0.884
3105	0.8827
3096	0.8811
3087	0.8786
3078	0.8751
3069	0.8671
3060	0.8608
3051	0.856
3042	0.8493
3033	0.8387
3024	0.8273
3015	0.8128
3006	0.7817
2997	0.7008
2988	0.5471
2979	0.3196
2970	0.0922
2961	0.0174
2952	0.0175
2943	0.0386
2934	0.0275
2925	0.0215
2916	0.0459
2907	0.1165
2898	0.1884
2889	0.2601
2880	0.0988
2871	0.1331
2862	0.1181
2853	0.1296
2844	0.5308
2835	0.6295
2826	0.6876
2817	0.7335
2808	0.7646
2799	0.7839
2790	0.8011
2781	0.8151
2772	0.8265
2763	0.8347
2754	0.8415
2745	0.8418
2736	0.8383
2727	0.8342
2718	0.8354
2709	0.8424
2700	0.8473
2691	0.8493
2682	0.85
2673	0.8457
2664	0.8378
2655	0.8436
2646	0.8513
2637	0.8573
2628	0.8605
2619	0.8611
2610	0.861
2601	0.8611
2592	0.8615
2583	0.8628
2574	0.8657
2565	0.8685
2556	0.871
2547	0.8731
2538	0.8752
2529	0.8771
2520	0.8788
2511	0.8805
2502	0.8817
2493	0.8828
2484	0.8838
2475	0.8844
2466	0.8851
2457	0.8853
2448	0.8851
2439	0.8846
2430	0.8834
2421	0.8789
2412	0.8766
2403	0.8774
2394	0.8759
2385	0.8746
2376	0.8747
2367	0.8754
2358	0.8757
2349	0.8758
2340	0.8764
2331	0.8775
2322	0.8785
2313	0.8737
2304	0.8725
2295	0.8731
2286	0.8742
2277	0.8753
2268	0.8764
2259	0.8775
2250	0.8787
2241	0.8799
2232	0.8811
2223	0.8818
2214	0.8825
2205	0.8828
2196	0.8832
2187	0.8834
2178	0.888
2169	0.8891
2160	0.8865
2151	0.8864
2142	0.8868
2133	0.8871
2124	0.8871
2115	0.887
2106	0.8868
2097	0.8863
2088	0.8858
2079	0.8852
2070	0.8846
2061	0.8841
2052	0.8837
2043	0.8832
2034	0.8828
2025	0.8821
2016	0.8816
2007	0.881
1998	0.8802
1989	0.8773
1980	0.8795
1971	0.8808
1962	0.8818
1953	0.881
1944	0.8804
1935	0.8806
1926	0.8809
1917	0.8809
1908	0.8804
1899	0.8797
1890	0.8787
1881	0.8781
1872	0.8768
1863	0.8741
1854	0.874
1845	0.8728
1836	0.8703
1827	0.8663
1818	0.8607
1809	0.854
1800	0.8462
1791	0.8362
1782	0.823
1773	0.8036
1764	0.7724
1755	0.6601
1746	0.3222
1737	0.0256
1728	0.0039
1719	0.0217
1710	0.2906
1701	0.5898
1692	0.6788
1683	0.7275
1674	0.7655
1665	0.8022
1656	0.8233
1647	0.8336
1638	0.84
1629	0.8441
1620	0.8475
1611	0.8508
1602	0.851
1593	0.8449
1584	0.8568
1575	0.8442
1566	0.853
1557	0.8591
1548	0.8621
1539	0.8635
1530	0.8599
1521	0.8544
1512	0.8468
1503	0.8349
1494	0.8174
1485	0.774
1476	0.5957
1467	0.2248
1458	0.2199
1449	0.353
1440	0.5975
1431	0.7128
1422	0.7375
1413	0.7321
1404	0.7125
1395	0.5282
1386	0.4582
1377	0.4578
1368	0.5538
1359	0.5587
1350	0.5543
1341	0.5006
1332	0.5002
1323	0.5782
1314	0.5634
1305	0.4632
1296	0.3234
1287	0.4003
1278	0.3668
1269	0.3347
1260	0.3221
1251	0.2781
1242	0.1984
1233	0.2277
1224	0.2584
1215	0.1846
1206	0.151
1197	0.152
1188	0.1098
1179	0.1017
1170	0.0638
1161	0.1139
1152	0.2575
1143	0.388
1134	0.4669
1125	0.1982
1116	0.4584
1107	0.5896
1098	0.6307
1089	0.6401
1080	0.643
1071	0.5189
1062	0.6038
1053	0.686
1044	0.7018
1035	0.436
1026	0.2984
1017	0.5194
1008	0.6199
999	0.5787
990	0.584
981	0.6088
972	0.6432
963	0.6645
954	0.6736
945	0.6956
936	0.7443
927	0.7393
918	0.7114
909	0.7036
900	0.7439
891	0.76
882	0.7651
873	0.7848
864	0.8194
855	0.8353
846	0.819
837	0.8188
828	0.825
819	0.8255
810	0.8307
801	0.8349
792	0.8328
783	0.7914
774	0.7368
765	0.7161
756	0.7474
747	0.7785
738	0.7619
729	0.7769
720	0.7433
711	0.8523
702	0.8453
693	0.8567
684	0.8631
675	0.876
666	0.8705
657	0.8723
648	0.8413
639	0.8477
630	0.8602
621	0.8682
612	0.8627
603	0.8532
594	0.8507
585	0.8504
576	0.8508
567	0.8503
558	0.8487
549	0.8461
540	0.8424
531	0.8342
522	0.8271
513	0.8233
504	0.8228
495	0.8221
486	0.8151
477	0.813
468	0.8174
459	0.8224
450	0.8266
441	0.8251
432	0.8215
423	0.8191
414	0.8199
405	0.8217
396	0.8241
