Infrared Spectrum: Dihexyl phthalate
Formula: C 20 H 30 O 4
CAS: 84-75-3
State: gas
Origin: EPA-IR VAPOR PHASE LIBRARY
1/CM	ABSORBANCE
549.8	0.0008199
559.445	0.002029
569.09	0.001289
578.734	0.0012238
588.379	0.00029112
598.024	0.0006434
607.669	0.0003839
617.313	0.0004696
626.958	0.0005048
636.603	0.0008832
646.248	0.002639
655.893	0.002689
665.537	0.001409
675.182	0.001849
684.827	0.003909
694.472	0.008949
704.116	0.009939
713.761	0.010119
723.406	0.013819
733.051	0.019569
742.695	0.024209
752.34	0.016839
761.985	0.011019
771.63	0.009019
781.275	0.008159
790.919	0.006689
800.564	0.004609
810.209	0.003979
819.854	0.004189
829.498	0.003809
839.143	0.003749
848.788	0.003819
858.433	0.003619
868.078	0.003509
877.722	0.003699
887.367	0.004219
897.012	0.005219
906.657	0.006389
916.301	0.006479
925.946	0.006419
935.591	0.005859
945.236	0.006739
954.88	0.008249
964.525	0.008929
974.17	0.009279
983.815	0.008589
993.46	0.008549
1003.1	0.007549
1012.75	0.007399
1022.39	0.009219
1032.04	0.017159
1041.68	0.027109
1051.33	0.025999
1060.97	0.048189
1070.62	0.080109
1080.26	0.046389
1089.91	0.025559
1099.55	0.030509
1109.2	0.062889
1118.84	0.115189
1128.49	0.106159
1138.13	0.073489
1147.78	0.032579
1157.42	0.016779
1167.07	0.011719
1176.71	0.009079
1186.36	0.008759
1196	0.010549
1205.64	0.012849
1215.29	0.016759
1224.93	0.025389
1234.58	0.045649
1244.22	0.082619
1253.87	0.126899
1263.51	0.176189
1273.16	0.192429
1282.8	0.171789
1292.45	0.113439
1302.09	0.058249
1311.74	0.033459
1321.38	0.022999
1331.03	0.017669
1340.67	0.012939
1350.32	0.010719
1359.96	0.009889
1369.61	0.009899
1379.25	0.013609
1388.9	0.014689
1398.54	0.008699
1408.18	0.006229
1417.83	0.005819
1427.47	0.006889
1437.12	0.010289
1446.76	0.015359
1456.41	0.017799
1466.05	0.020169
1475.7	0.015639
1485.34	0.010699
1494.99	0.006879
1504.63	0.004929
1514.28	0.003989
1523.92	0.003509
1533.57	0.003129
1543.21	0.002849
1552.86	0.003109
1562.5	0.003679
1572.15	0.006039
1581.79	0.007389
1591.44	0.005309
1601.08	0.006709
1610.73	0.004139
1620.37	0.003389
1630.01	0.003119
1639.66	0.003139
1649.3	0.003269
1658.95	0.003599
1668.59	0.004139
1678.24	0.005029
1687.88	0.006609
1697.53	0.009809
1707.17	0.014509
1716.82	0.024299
1726.46	0.048959
1736.11	0.117389
1745.75	0.192539
1755.4	0.102129
1765.04	0.040319
1774.69	0.019609
1784.33	0.011309
1793.98	0.007399
1803.62	0.005449
1813.27	0.004449
1822.91	0.003899
1832.55	0.003639
1842.2	0.002789
1851.84	0.002479
1861.49	0.002299
1871.13	0.001859
1880.78	0.001569
1890.42	0.001579
1900.07	0.001599
1909.71	0.001719
1919.36	0.001659
1929	0.002289
1938.65	0.002329
1948.29	0.001679
1957.94	0.001869
1967.58	0.001939
1977.23	0.0012171
1986.87	0.0010705
1996.52	0.0009959
2006.16	0.0009582
2015.81	0.0010957
2025.45	0.0010825
2035.1	0.0011568
2044.74	0.0011004
2054.38	0.0011646
2064.03	0.0011621
2073.67	0.001309
2083.32	0.001329
2092.96	0.001339
2102.61	0.001269
2112.25	0.0011969
2121.9	0.0011803
2131.54	0.0010099
2141.19	0.0009913
2150.83	0.0009027
2160.48	0.000883
2170.12	0.0008107
2179.77	0.0007982
2189.41	0.0008936
2199.06	0.0008259
2208.7	0.0008967
2218.35	0.000885
2227.99	0.0009106
2237.64	0.0009117
2247.28	0.0007759
2256.92	0.0009101
2266.57	0.0007926
2276.21	0.0007628
2285.86	0.0007953
2295.5	0.0007761
2305.15	0.0008193
2314.79	0.0008251
2324.44	0.0010993
2334.08	0.0010714
2343.73	0.0009805
2353.37	0.0010536
2363.02	0.0010161
2372.66	0.0009828
2382.31	0.000945
2391.95	0.0009733
2401.6	0.0008899
2411.24	0.0008389
2420.89	0.0007889
2430.53	0.0006192
2440.18	0.0006586
2449.82	0.0006879
2459.47	0.0004704
2469.11	0.0005375
2478.75	0.0005352
2488.4	0.0007149
2498.04	0.0005997
2507.69	0.0006611
2517.33	0.0006571
2526.98	0.0006636
2536.62	0.0007763
2546.27	0.0007746
2555.91	0.0008981
2565.56	0.0009459
2575.2	0.000899
2584.85	0.000961
2594.49	0.0009507
2604.14	0.0010683
2613.78	0.0009453
2623.43	0.0009647
2633.07	0.0010605
2642.72	0.0010968
2652.36	0.001279
2662.01	0.001319
2671.65	0.001339
2681.29	0.001589
2690.94	0.001649
2700.58	0.001469
2710.23	0.001579
2719.87	0.001749
2729.52	0.001639
2739.16	0.002189
2748.81	0.002379
2758.45	0.002379
2768.1	0.002419
2777.74	0.002559
2787.39	0.002869
2797.03	0.003179
2806.68	0.004089
2816.32	0.005059
2825.97	0.006709
2835.61	0.009239
2845.26	0.014009
2854.9	0.025579
2864.55	0.038889
2874.19	0.040749
2883.84	0.039269
2893.48	0.035329
2903.12	0.040779
2912.77	0.053019
2922.41	0.072309
2932.06	0.096769
2941.7	0.099269
2951.35	0.083579
2960.99	0.089419
2970.64	0.085329
2980.28	0.046279
2989.93	0.026379
2999.57	0.015629
3009.22	0.010159
3018.86	0.007259
3028.51	0.006439
3038.15	0.005919
3047.8	0.005179
3057.44	0.005599
3067.09	0.008359
3076.73	0.013359
3086.38	0.007049
3096.02	0.003589
3105.67	0.003079
3115.31	0.002049
3124.95	0.001539
3134.6	0.001729
3144.24	0.001539
3153.89	0.001639
3163.53	0.001239
3173.18	0.001239
3182.82	0.0009531
3192.47	0.0010087
3202.11	0.0007285
3211.76	0.0006869
3221.4	0.0007263
3231.05	0.0004437
3240.69	0.0004512
3250.34	0.0004668
3259.98	9.7e-05
3269.63	0.0004822
3279.27	0.0004779
3288.92	0.0004442
3298.56	0.0005357
3308.21	0.0004579
3317.85	0.00031029
3327.49	0.0005156
3337.14	0.0004409
3346.78	0.0004862
3356.43	0.0004053
3366.07	0.0005332
3375.72	0.0004331
3385.36	0.000240016
3395.01	0.000566
3404.65	0.0003491
3414.3	0.0004569
3423.94	0.0004941
3433.59	0.0009018
3443.23	0.0007889
3452.88	0.0010286
3462.52	0.001369
3472.17	0.001559
3481.81	0.001529
3491.46	0.0010405
3501.1	0.0006828
3510.75	0.0006177
3520.39	0.00033102
3530.04	0.0004151
3539.68	0.0002234
3549.32	0.0003739
3558.97	0.00026442
3568.61	2.6e-05
3578.26	0.00028307
3587.9	0
3597.55	0.000134
3607.19	0.0001934
3616.84	0.0001931
3626.48	0.0003514
3636.13	0.0004285
3645.77	0.0004371
3655.42	0.00027711
3665.06	0.0004752
3674.71	0.0004765
3684.35	0.0003492
3694	0.0004557
3703.64	0.00028867
3713.29	0.00024291
3722.93	0.0004386
3732.58	0.00030638
3742.22	0.0004752
3751.86	0.00032346
3761.51	0.0004396
3771.15	0.00032525
3780.8	0.00032006
3790.44	0.00031185
3800.09	0.0005267
3809.73	0.0003737
3819.38	0.0006096
3829.02	0.0004035
3838.67	0.000468
3848.31	0.0003798
3857.96	0.0003727
3867.6	0.0004071
3877.25	0.0005703
3886.89	0.0004854
3896.54	0.0006016
3906.18	0.0006447
3915.83	0.0005639
3925.47	0.0005275
3935.12	0.0004381
3944.76	0.0004052
3954.41	0.0005909
3964.05	0.000618
3973.69	0.0006309
3983.34	0.0007854
3992.98	0.0008968
