Infrared Spectrum: 5-QUINOLINESULFONIC ACID, 8-HYDROXY-
Formula: C9 H7 N O4 S
CAS: 84-88-8
State: SOLID (OIL MULL)
Class: COBLENTZ III
Instrument: BAIRD (PRISM)
Instrument parameters: NaCl PRISM
Sampling: TRANSMISSION
Resolution: 2
Origin: WYANDOTTE CHEMICALS CORP.
MICROMETERS	TRANSMITTANCE
2.028	0.389
2.06706	0.389
2.10611	0.389
2.14517	0.389
2.18423	0.389
2.22329	0.389
2.26234	0.392
2.3014	0.395
2.34046	0.398
2.37952	0.401
2.41857	0.414
2.45763	0.422
2.49669	0.426
2.53575	0.434
2.5748	0.441
2.61386	0.445
2.65292	0.447
2.69197	0.447
2.73103	0.441
2.77009	0.419
2.80915	0.389
2.8482	0.34
2.88726	0.315
2.92632	0.284
2.96538	0.262
3.00443	0.26
3.04349	0.276
3.08255	0.307
3.12161	0.33
3.16066	0.346
3.19972	0.356
3.23878	0.347
3.27783	0.3
3.31689	0.218
3.35595	0.039
3.39501	0.018
3.43406	0.018
3.47312	0.019
3.51218	0.046
3.55124	0.156
3.59029	0.274
3.62935	0.347
3.66841	0.35
3.70747	0.35
3.74652	0.35
3.78558	0.35
3.82464	0.351
3.8637	0.356
3.90275	0.366
3.94181	0.377
3.98087	0.387
4.01992	0.405
4.05898	0.42
4.09804	0.437
4.1371	0.446
4.17615	0.454
4.21521	0.464
4.25427	0.467
4.29333	0.471
4.33238	0.48
4.37144	0.508
4.4105	0.53
4.44956	0.535
4.48861	0.547
4.52767	0.549
4.56673	0.553
4.60578	0.557
4.64484	0.561
4.6839	0.562
4.72296	0.559
4.76201	0.559
4.80107	0.564
4.84013	0.578
4.87919	0.59
4.91824	0.604
4.9573	0.618
4.99636	0.628
5.03542	0.647
5.07447	0.653
5.11353	0.67
5.15259	0.684
5.19164	0.699
5.2307	0.7
5.26976	0.701
5.30882	0.707
5.34787	0.716
5.38693	0.728
5.42599	0.737
5.46505	0.743
5.5041	0.752
5.54316	0.759
5.58222	0.768
5.62128	0.782
5.66033	0.797
5.69939	0.811
5.73845	0.827
5.7775	0.858
5.81656	0.863
5.85562	0.863
5.89468	0.889
5.93373	0.907
5.97279	0.921
6.01185	0.955
6.05091	0.955
6.08996	0.844
6.12902	0.692
6.16808	0.697
6.20714	0.537
6.24619	0.542
6.28525	0.61
6.32431	0.734
6.36337	0.61
6.40242	0.421
6.44148	0.413
6.48054	0.463
6.51959	0.512
6.55865	0.563
6.59771	0.584
6.63677	0.562
6.67582	0.54
6.71488	0.469
6.75394	0.307
6.793	0.07
6.83205	0.051
6.87111	0.061
6.91017	0.157
6.94923	0.289
6.98828	0.579
7.02734	0.701
7.0664	0.729
7.10545	0.75
7.14451	0.674
7.18357	0.378
7.22263	0.128
7.26168	0.088
7.30074	0.16
7.3398	0.261
7.37886	0.384
7.41791	0.459
7.45697	0.524
7.49603	0.599
7.53509	0.589
7.57414	0.485
7.6132	0.364
7.65226	0.347
7.69131	0.369
7.73037	0.421
7.76943	0.487
7.80849	0.512
7.84754	0.499
7.8866	0.477
7.92566	0.48
7.96472	0.48
8.00377	0.467
8.04283	0.404
8.08189	0.332
8.12095	0.266
8.16	0.25
8.19906	0.261
8.23812	0.302
8.27717	0.321
8.31623	0.256
8.35529	0.172
8.39435	0.162
8.4334	0.156
8.47246	0.155
8.51152	0.17
8.55058	0.215
8.58963	0.229
8.62869	0.217
8.66775	0.237
8.70681	0.298
8.74586	0.348
8.78492	0.311
8.82398	0.284
8.86303	0.348
8.90209	0.41
8.94115	0.448
8.98021	0.475
9.01926	0.512
9.05832	0.54
9.09738	0.57
9.13644	0.583
9.17549	0.596
9.21455	0.598
9.25361	0.605
9.29267	0.627
9.33172	0.622
9.37078	0.549
9.40984	0.403
9.4489	0.307
9.48795	0.298
9.52701	0.257
9.56607	0.197
9.60512	0.181
9.64418	0.199
9.68324	0.241
9.7223	0.278
9.76135	0.319
9.80041	0.357
9.83947	0.388
9.87853	0.419
9.91758	0.438
9.95664	0.451
9.9957	0.468
10.0348	0.479
10.0738	0.489
10.1129	0.498
10.1519	0.5
10.191	0.498
10.23	0.482
10.2691	0.459
10.3082	0.442
10.3472	0.442
10.3863	0.468
10.4253	0.473
10.4644	0.472
10.5034	0.45
10.5425	0.421
10.5816	0.419
10.6206	0.43
10.6597	0.448
10.6987	0.468
10.7378	0.491
10.7768	0.517
10.8159	0.545
10.855	0.559
10.894	0.579
10.9331	0.598
10.9721	0.62
11.0112	0.637
11.0502	0.658
11.0893	0.67
11.1284	0.68
11.1674	0.689
11.2065	0.705
11.2455	0.712
11.2846	0.727
11.3236	0.747
11.3627	0.766
11.4018	0.779
11.4408	0.787
11.4799	0.795
11.5189	0.795
11.558	0.782
11.597	0.734
11.6361	0.626
11.6752	0.458
11.7142	0.41
11.7533	0.521
11.7923	0.626
11.8314	0.711
11.8705	0.76
11.9095	0.801
11.9486	0.833
11.9876	0.859
12.0267	0.87
12.0657	0.882
12.1048	0.892
12.1439	0.89
12.1829	0.789
12.222	0.654
12.261	0.538
12.3001	0.546
12.3391	0.602
12.3782	0.641
12.4173	0.627
12.4563	0.653
12.4954	0.722
12.5344	0.758
12.5735	0.8
12.6125	0.832
12.6516	0.849
12.6907	0.858
12.7297	0.861
12.7688	0.861
12.8078	0.856
12.8469	0.812
12.8859	0.686
12.925	0.579
12.9641	0.595
13.0031	0.66
13.0422	0.711
13.0812	0.754
13.1203	0.799
13.1593	0.839
13.1984	0.86
13.2375	0.872
13.2765	0.877
13.3156	0.884
13.3546	0.886
13.3937	0.889
13.4327	0.887
13.4718	0.88
13.5109	0.869
13.5499	0.856
13.589	0.844
13.628	0.833
13.6671	0.821
13.7061	0.796
13.7452	0.745
13.7843	0.667
13.8233	0.553
13.8624	0.517
13.9014	0.536
13.9405	0.605
13.9795	0.676
14.0186	0.748
14.0577	0.812
14.0967	0.863
14.1358	0.885
14.1748	0.906
14.2139	0.917
14.2529	0.922
14.292	0.923
14.3311	0.922
14.3701	0.918
14.4092	0.903
14.4482	0.877
14.4873	0.854
14.5263	0.815
14.5654	0.773
14.6045	0.7
14.6435	0.609
14.6826	0.542
14.7216	0.485
14.7607	0.438
14.7998	0.432
14.8388	0.447
14.8779	0.473
14.9169	0.511
14.956	0.548
14.995	0.563
15.0341	0.568
15.0732	0.57
15.1122	0.599
15.1513	0.626
15.1903	0.643
15.2294	0.649
15.2684	0.651
15.3075	0.647
15.3466	0.641
15.3856	0.635
15.4247	0.626
15.4637	0.615
15.5028	0.604
15.5418	0.593
15.5809	0.584
15.62	0.568
15.659	0.551
15.6981	0.533
15.7371	0.519
15.7762	0.505
15.8152	0.493
15.8543	0.48
15.8934	0.469
15.9324	0.462
15.9715	0.458
