Infrared Spectrum: 4-AMINO-1-NAPHTHALENE SULFONIC ACID
Formula: C10 H9 N O3 S
CAS: 84-86-6
State: SOLID (MINERAL OIL MULL)
Class: COBLENTZ
Instrument: Not specified, most likely a prism, grating, or hybrid spectrometer.
Sampling: TRANSMISSION
Resolution: 4
Origin: WYANDOTTE CHEMICALS CORP., WYANDOTTE, MICHIGAN, USA
MICROMETERS	TRANSMITTANCE
2.027	0.27
2.06784	0.285
2.10868	0.299
2.14951	0.309
2.19035	0.321
2.23119	0.329
2.27203	0.336
2.31287	0.355
2.3537	0.365
2.39454	0.377
2.43538	0.401
2.47622	0.413
2.51706	0.433
2.55789	0.45
2.59873	0.467
2.63957	0.476
2.68041	0.5
2.72125	0.508
2.76208	0.51
2.80292	0.511
2.84376	0.5
2.8846	0.506
2.92544	0.513
2.96627	0.508
3.00711	0.522
3.04795	0.557
3.08879	0.569
3.12963	0.537
3.17046	0.448
3.2113	0.365
3.25214	0.256
3.29298	0.192
3.33382	0.1
3.37465	0.025
3.41549	0.027
3.45633	0.027
3.49717	0.028
3.53801	0.095
3.57884	0.263
3.61968	0.319
3.66052	0.346
3.70136	0.375
3.7422	0.403
3.78303	0.353
3.82387	0.299
3.86471	0.333
3.90555	0.394
3.94639	0.44
3.98722	0.489
4.02806	0.517
4.0689	0.547
4.10974	0.568
4.15058	0.583
4.19141	0.602
4.23225	0.61
4.27309	0.596
4.31393	0.612
4.35477	0.639
4.3956	0.673
4.43644	0.683
4.47728	0.687
4.51812	0.7
4.55896	0.702
4.59979	0.71
4.64063	0.732
4.68147	0.736
4.72231	0.748
4.76315	0.768
4.80398	0.784
4.84482	0.789
4.88566	0.792
4.9265	0.794
4.96734	0.795
5.00817	0.804
5.04901	0.812
5.08985	0.812
5.13069	0.806
5.17153	0.802
5.21236	0.811
5.2532	0.828
5.29404	0.816
5.33488	0.838
5.37572	0.87
5.41655	0.882
5.45739	0.869
5.49823	0.887
5.53907	0.889
5.57991	0.909
5.62075	0.918
5.66158	0.914
5.70242	0.918
5.74326	0.914
5.7841	0.918
5.82494	0.92
5.86577	0.923
5.90661	0.899
5.94745	0.933
5.98829	0.937
6.02913	0.894
6.06996	0.85
6.1108	0.841
6.15164	0.76
6.19248	0.829
6.23332	0.568
6.27415	0.528
6.31499	0.562
6.35583	0.59
6.39667	0.579
6.43751	0.285
6.47834	0.34
6.51918	0.617
6.56002	0.418
6.60086	0.63
6.6417	0.727
6.68253	0.732
6.72337	0.654
6.76421	0.411
6.80505	0.175
6.84589	0.231
6.88672	0.365
6.92756	0.515
6.9684	0.653
7.00924	0.823
7.05008	0.874
7.09091	0.889
7.13175	0.887
7.17259	0.75
7.21343	0.455
7.25427	0.345
7.2951	0.578
7.33594	0.715
7.37678	0.773
7.41762	0.741
7.45846	0.756
7.49929	0.829
7.54013	0.852
7.58097	0.867
7.62181	0.862
7.66265	0.855
7.70348	0.838
7.74432	0.702
7.78516	0.471
7.826	0.775
7.86684	0.789
7.90767	0.624
7.94851	0.289
7.98935	0.078
8.03019	0.113
8.07103	0.301
8.11186	0.443
8.1527	0.59
8.19354	0.678
8.23438	0.707
8.27522	0.608
8.31605	0.474
8.35689	0.578
8.39773	0.6
8.43857	0.523
8.47941	0.306
8.52024	0.1
8.56108	0.166
8.60192	0.272
8.64276	0.125
8.6836	0.1
8.72443	0.105
8.76527	0.102
8.80611	0.229
8.84695	0.355
8.88779	0.387
8.92862	0.29
8.96946	0.336
9.0103	0.491
9.05114	0.566
9.09198	0.619
9.13281	0.649
9.17365	0.671
9.21449	0.685
9.25533	0.688
9.29617	0.698
9.337	0.695
9.37784	0.673
9.41868	0.659
9.45952	0.661
9.50036	0.595
9.54119	0.43
9.58203	0.187
9.62287	0.066
9.66371	0.079
9.70455	0.244
9.74538	0.36
9.78622	0.408
9.82706	0.447
9.8679	0.26
9.90874	0.255
9.94957	0.433
9.99041	0.588
10.0313	0.659
10.0721	0.649
10.1129	0.658
10.1538	0.697
10.1946	0.705
10.2354	0.707
10.2763	0.736
10.3171	0.761
10.358	0.77
10.3988	0.719
10.4396	0.746
10.4805	0.78
10.5213	0.806
10.5621	0.818
10.603	0.823
10.6438	0.819
10.6847	0.814
10.7255	0.824
10.7663	0.841
10.8072	0.853
10.848	0.867
10.8888	0.877
10.9297	0.88
10.9705	0.897
11.0114	0.914
11.0522	0.923
11.093	0.918
11.1339	0.92
11.1747	0.916
11.2156	0.908
11.2564	0.904
11.2972	0.906
11.3381	0.903
11.3789	0.911
11.4197	0.918
11.4606	0.909
11.5014	0.906
11.5423	0.853
11.5831	0.835
11.6239	0.857
11.6648	0.879
11.7056	0.884
11.7464	0.858
11.7873	0.704
11.8281	0.428
11.869	0.539
11.9098	0.724
11.9506	0.826
11.9915	0.879
12.0323	0.911
12.0732	0.926
12.114	0.933
12.1548	0.948
12.1957	0.952
12.2365	0.959
12.2773	0.96
12.3182	0.957
12.359	0.96
12.3999	0.967
12.4407	0.969
12.4815	0.971
12.5224	0.969
12.5632	0.954
12.604	0.931
12.6449	0.943
12.6857	0.957
12.7266	0.955
12.7674	0.942
12.8082	0.901
12.8491	0.729
12.8899	0.61
12.9307	0.69
12.9716	0.613
13.0124	0.372
13.0533	0.192
13.0941	0.205
13.1349	0.34
13.1758	0.43
13.2166	0.585
13.2575	0.704
13.2983	0.78
13.3391	0.823
13.38	0.852
13.4208	0.875
13.4616	0.88
13.5025	0.882
13.5433	0.886
13.5842	0.886
13.625	0.884
13.6658	0.886
13.7067	0.88
13.7475	0.872
13.7883	0.865
13.8292	0.853
13.87	0.843
13.9109	0.835
13.9517	0.826
13.9925	0.755
14.0334	0.559
14.0742	0.46
14.1151	0.613
14.1559	0.782
14.1967	0.857
14.2376	0.908
14.2784	0.925
14.3192	0.937
14.3601	0.911
14.4009	0.875
14.4418	0.816
14.4826	0.756
14.5234	0.653
14.5643	0.489
14.6051	0.34
14.6459	0.229
14.6868	0.202
14.7276	0.229
14.7685	0.306
14.8093	0.42
14.8501	0.534
14.891	0.603
14.9318	0.654
14.9726	0.678
15.0135	0.67
15.0543	0.659
15.0952	0.695
15.136	0.741
15.1768	0.756
15.2177	0.746
15.2585	0.727
15.2994	0.722
15.3402	0.707
15.381	0.698
15.4219	0.688
15.4627	0.673
15.5035	0.67
15.5444	0.658
15.5852	0.649
15.6261	0.632
15.6669	0.62
15.7077	0.605
15.7486	0.588
15.7894	0.576
15.8302	0.561
15.8711	0.552
15.9119	0.54
15.9528	0.535
15.9936	0.522
