Infrared Spectrum: N,N-Diethyl-1-naphthaleneamine
Formula: C 14 H 17 N
CAS: 84-95-7
State: gas
Origin: EPA-IR VAPOR PHASE LIBRARY
1/CM	ABSORBANCE
501.5	0.0001145
513.074	0.0006266
524.648	0.0005177
536.222	0.0002664
547.796	0.0003554
559.37	0.0005689
570.944	0.00158
582.518	0.00271
594.092	0.00221
605.666	0.00121
617.24	0.0006059
628.814	0.0004719
640.388	0.0002768
651.962	0.0005615
663.536	0.0007712
675.11	0.0009809
686.684	0.00131
698.258	0.0007775
709.832	0.0007185
721.406	0.00116
732.98	0.00177
744.554	0.00247
756.128	0.00882
767.702	0.03851
779.276	0.03595
790.85	0.02034
802.423	0.01216
813.997	0.00389
825.571	0.0021
837.145	0.00112
848.719	0.0008119
860.293	0.0008717
871.867	0.0008006
883.441	0.000894
895.015	0.00151
906.589	0.0012
918.163	0.0008794
929.737	0.0009634
941.311	0.00109
952.885	0.00147
964.459	0.00163
976.033	0.00123
987.607	0.00182
999.181	0.00329
1010.76	0.00833
1022.33	0.00783
1033.9	0.00527
1045.48	0.00922
1057.05	0.0102
1068.63	0.01172
1080.2	0.01602
1091.77	0.01401
1103.35	0.00911
1114.92	0.00697
1126.49	0.00541
1138.07	0.00606
1149.64	0.00777
1161.22	0.00852
1172.79	0.00959
1184.36	0.00768
1195.94	0.006
1207.51	0.00567
1219.09	0.00681
1230.66	0.01324
1242.23	0.01187
1253.81	0.01358
1265.38	0.01323
1276.96	0.00651
1288.53	0.00674
1300.1	0.00713
1311.68	0.00599
1323.25	0.00618
1334.83	0.0064
1346.4	0.00659
1357.97	0.00952
1369.55	0.01593
1381.12	0.02639
1392.7	0.02528
1404.27	0.01876
1415.84	0.0091
1427.42	0.00651
1438.99	0.00823
1450.57	0.01019
1462.14	0.01163
1473.71	0.00807
1485.29	0.00533
1496.86	0.00641
1508.44	0.00722
1520.01	0.00351
1531.58	0.00278
1543.16	0.00244
1554.73	0.00362
1566.31	0.0109
1577.88	0.01491
1589.45	0.00926
1601.03	0.00447
1612.6	0.00235
1624.18	0.00206
1635.75	0.00157
1647.32	0.00137
1658.9	0.00147
1670.47	0.00126
1682.05	0.00153
1693.62	0.00147
1705.19	0.00104
1716.77	0.00138
1728.34	0.00135
1739.92	0.00119
1751.49	0.00125
1763.06	0.0012
1774.64	0.00133
1786.21	0.0009445
1797.79	0.000895
1809.36	0.00121
1820.93	0.00119
1832.51	0.00165
1844.08	0.00158
1855.66	0.00101
1867.23	0.00064
1878.8	0.0005596
1890.38	0.0008189
1901.95	0.00171
1913.53	0.00227
1925.1	0.00178
1936.67	0.00129
1948.25	0.00117
1959.82	0.000745
1971.4	0.0004725
1982.97	0.0003887
1994.54	0.0003283
2006.12	0.0002797
2017.69	0.0002733
2029.27	0.0002934
2040.84	0.000337
2052.41	0.000319
2063.99	0.0003066
2075.56	0.000308
2087.14	0.0003287
2098.71	0.0002946
2110.28	0.0002911
2121.86	0.0002418
2133.43	0.0002932
2145.01	0.0002761
2156.58	0.0003068
2168.15	0.000277
2179.73	0.0002598
2191.3	0.0002077
2202.88	0.0002152
2214.45	0.0002249
2226.02	0.0002474
2237.6	0.0003155
2249.17	0.0003594
2260.74	0.0004498
2272.32	0.0004475
2283.89	0.0004665
2295.47	0.0004798
2307.04	0.0004697
2318.61	0.0003913
2330.19	0.0003472
2341.76	0.0003409
2353.34	0.0003654
2364.91	0.0003651
2376.48	0.0003781
2388.06	0.000402
2399.63	0.0004458
2411.21	0.0004833
2422.78	0.000442
2434.35	0.0003834
2445.93	0.0003943
2457.5	0.0004355
2469.08	0.0004639
2480.65	0.0004189
2492.22	0.0003634
2503.8	0.0003747
2515.37	0.0004364
2526.95	0.0004301
2538.52	0.0004563
2550.09	0.000509
2561.67	0.0005607
2573.24	0.000602
2584.82	0.0006777
2596.39	0.0007912
2607.96	0.0008214
2619.54	0.0009204
2631.11	0.0009666
2642.69	0.00105
2654.26	0.00114
2665.83	0.00132
2677.41	0.00156
2688.98	0.00189
2700.56	0.0022
2712.13	0.00241
2723.7	0.00263
2735.28	0.00274
2746.85	0.00292
2758.43	0.00349
2770	0.00395
2781.57	0.00476
2793.15	0.00679
2804.72	0.01104
2816.3	0.01827
2827.87	0.02174
2839.44	0.01765
2851.02	0.01261
2862.59	0.01002
2874.17	0.01242
2885.74	0.01412
2897.31	0.0125
2908.89	0.0143
2920.46	0.0172
2932.04	0.0243
2943.61	0.02761
2955.18	0.02056
2966.76	0.03014
2978.33	0.04588
2989.91	0.02581
3001.48	0.01095
3013.05	0.00785
3024.63	0.00706
3036.2	0.01049
3047.78	0.02244
3059.35	0.0282
3070.92	0.01834
3082.5	0.01374
3094.07	0.00898
3105.65	0.00374
3117.22	0.00195
3128.79	0.00137
3140.37	0.00113
3151.94	0.00104
3163.52	0.0009253
3175.09	0.0008406
3186.66	0.0007768
3198.24	0.0006438
3209.81	0.0006062
3221.39	0.0005086
3232.96	0.0003723
3244.53	0.0002591
3256.11	0.0002508
3267.68	0.0002046
3279.26	0.0001613
3290.83	0.0002101
3302.4	0.0002083
3313.98	0.0001471
3325.55	0.000157
3337.13	8.413e-05
3348.7	6.938e-05
3360.27	0.000111
3371.85	0.0001098
3383.42	0.0001296
3395	0.0001913
3406.57	0.0001705
3418.14	0.0001302
3429.72	0.0001422
3441.29	0.0001501
3452.86	0.0001005
3464.44	9.843e-05
3476.01	0.0001733
3487.59	0.0001082
3499.16	7.923e-05
3510.73	0.0001131
3522.31	0.0001391
3533.88	0.0001452
3545.46	7.926e-05
3557.03	0.0002265
3568.6	0.0001275
3580.18	0.0002313
3591.75	0.000173
3603.33	0.000213
3614.9	0.0001673
3626.47	0.0001632
3638.05	0.0001501
3649.62	0.0001747
3661.2	0.0002146
3672.77	0.0001312
3684.34	0.000222
3695.92	0.0001017
3707.49	0.000227
3719.07	0.0001943
3730.64	0.0001702
3742.21	0.000242
3753.79	0.0002591
3765.36	0.0002368
3776.94	0.0002292
3788.51	0.0002936
3800.08	0.0002689
3811.66	0.0001559
3823.23	0.0002286
3834.81	0.0003234
3846.38	0.0003376
3857.95	0.0003402
3869.53	0.0002444
3881.1	0.0003104
3892.68	0.0003443
3904.25	0.0001791
3915.82	0.0002843
3927.4	0.0002579
3938.97	0.000335
3950.55	0.0004084
3962.12	0.0003468
3973.69	0.0003045
3985.27	0.0004123
3996.84	0.0003207
