Infrared Spectrum: N-(Beta-DIETHYLAMINOETHYL)-2-CHLORO-4-AMINOBENZAMIDE
Formula: C13 H20 Cl N3 O
CAS: 840-10-8
State: SOLUTION (7% CHCl3)
Class: COBLENTZ
Instrument: Not specified, most likely a prism, grating, or hybrid spectrometer.
Sampling: TRANSMISSION
Path length: 0.010 CM
Resolution: 4
MICROMETERS	TRANSMITTANCE
1.98	0.998
2.02037	1
2.06074	1.001
2.10111	1
2.14148	0.996
2.18186	0.993
2.22223	0.993
2.2626	0.993
2.30297	0.985
2.34334	0.978
2.38371	0.975
2.42408	0.978
2.46445	0.98
2.50482	0.982
2.5452	0.98
2.58557	0.985
2.62594	0.982
2.66631	0.985
2.70668	0.98
2.74705	0.988
2.78742	0.969
2.82779	0.849
2.86816	0.767
2.90854	0.59
2.94891	0.629
2.98928	0.762
3.02965	0.845
3.07002	0.852
3.11039	0.865
3.15076	0.899
3.19113	0.9
3.2315	0.896
3.27188	0.871
3.31225	0.464
3.35262	0.43
3.39299	0.576
3.43336	0.652
3.47373	0.696
3.5141	0.623
3.55447	0.683
3.59485	0.813
3.63522	0.865
3.67559	0.871
3.71596	0.913
3.75633	0.923
3.7967	0.93
3.83707	0.931
3.87744	0.935
3.91781	0.936
3.95819	0.938
3.99856	0.933
4.03893	0.93
4.0793	0.925
4.11967	0.928
4.16004	0.939
4.20041	0.946
4.24078	0.952
4.28115	0.954
4.32153	0.954
4.3619	0.954
4.40227	0.962
4.44264	0.959
4.48301	0.959
4.52338	0.962
4.56375	0.961
4.60412	0.959
4.64449	0.959
4.68487	0.959
4.72524	0.961
4.76561	0.964
4.80598	0.961
4.84635	0.961
4.88672	0.957
4.92709	0.961
4.96746	0.961
5.00783	0.959
5.04821	0.957
5.08858	0.956
5.12895	0.952
5.16932	0.951
5.20969	0.949
5.25006	0.948
5.29043	0.948
5.3308	0.949
5.37117	0.949
5.41155	0.949
5.45192	0.949
5.49229	0.948
5.53266	0.948
5.57303	0.948
5.6134	0.946
5.65377	0.936
5.69414	0.933
5.73451	0.926
5.77489	0.92
5.81526	0.905
5.85563	0.891
5.896	0.857
5.93637	0.779
5.97674	0.589
6.01711	0.376
6.05748	0.258
6.09786	0.123
6.13823	0.081
6.1786	0.048
6.21897	0.142
6.25934	0.362
6.29971	0.649
6.34008	0.67
6.38045	0.67
6.42082	0.626
6.4612	0.564
6.50157	0.474
6.54194	0.292
6.58231	0.235
6.62268	0.232
6.66305	0.342
6.70342	0.149
6.74379	0.154
6.78416	0.339
6.82454	0.448
6.86491	0.532
6.90528	0.602
6.94565	0.676
6.98602	0.72
7.02639	0.714
7.06676	0.719
7.10713	0.774
7.1475	0.792
7.18788	0.751
7.22825	0.663
7.26862	0.657
7.30899	0.67
7.34936	0.735
7.38973	0.673
7.4301	0.667
7.47047	0.735
7.51084	0.748
7.55122	0.725
7.59159	0.65
7.63196	0.556
7.67233	0.487
7.7127	0.433
7.75307	0.391
7.79344	0.345
7.83381	0.323
7.87418	0.428
7.91456	0.53
7.95493	0.543
7.9953	0.54
8.03567	0.529
8.07604	0.524
8.11641	0.553
8.15678	0.568
8.19715	0.573
8.23752	0.579
8.2779	0.586
8.31827	0.59
8.35864	0.582
8.39901	0.654
8.43938	0.701
8.47975	0.685
8.52012	0.681
8.56049	0.704
8.60087	0.719
8.64124	0.748
8.68161	0.793
8.72198	0.788
8.76235	0.793
8.80272	0.797
8.84309	0.787
8.88346	0.777
8.92383	0.797
8.96421	0.821
9.00458	0.834
9.04495	0.832
9.08532	0.816
9.12569	0.787
9.16606	0.725
9.20643	0.685
9.2468	0.672
9.28717	0.613
9.32755	0.621
9.36792	0.586
9.40829	0.605
9.44866	0.646
9.48903	0.681
9.5294	0.688
9.56977	0.694
9.61014	0.688
9.65051	0.681
9.69089	0.745
9.73126	0.793
9.77163	0.819
9.812	0.826
9.85237	0.834
9.89274	0.852
9.93311	0.852
9.97348	0.844
10.0139	0.844
10.0542	0.853
10.0946	0.87
10.135	0.878
10.1753	0.886
10.2157	0.892
10.2561	0.894
10.2965	0.894
10.3368	0.894
10.3772	0.892
10.4176	0.892
10.4579	0.892
10.4983	0.894
10.5387	0.894
10.5791	0.894
10.6194	0.883
10.6598	0.878
10.7002	0.863
10.7405	0.85
10.7809	0.85
10.8213	0.849
10.8616	0.847
10.902	0.813
10.9424	0.743
10.9828	0.686
11.0231	0.699
11.0635	0.748
11.1039	0.787
11.1442	0.811
11.1846	0.829
11.225	0.834
11.2654	0.836
11.3057	0.829
11.3461	0.831
11.3865	0.836
11.4268	0.84
11.4672	0.845
11.5076	0.84
11.548	0.832
11.5883	0.818
11.6287	0.787
11.6691	0.738
11.7094	0.683
11.7498	0.633
11.7902	0.631
11.8306	0.646
11.8709	0.688
11.9113	0.724
11.9517	0.735
11.992	0.737
12.0324	0.72
12.0728	0.717
12.1132	0.704
12.1535	0.722
12.1939	0.738
12.2343	0.769
12.2746	0.793
12.315	0.793
12.3554	0.803
12.3958	0.806
12.4361	0.806
12.4765	0.805
12.5169	0.805
12.5572	0.808
12.5976	0.811
12.638	0.811
12.6783	0.811
12.7187	0.818
12.7591	0.826
12.7995	0.832
12.8398	0.834
12.8802	0.834
12.9206	0.829
12.9609	0.832
13.0013	0.832
13.0417	0.834
13.0821	0.834
13.1224	0.832
13.1628	0.836
13.2032	0.836
13.2435	0.837
13.2839	0.84
13.3243	0.844
13.3647	0.847
13.405	0.85
13.4454	0.852
13.4858	0.852
13.5261	0.852
13.5665	0.852
13.6069	0.852
13.6473	0.85
13.6876	0.85
13.728	0.847
13.7684	0.849
13.8087	0.845
13.8491	0.836
13.8895	0.819
13.9299	0.803
13.9702	0.788
14.0106	0.772
14.051	0.764
14.0913	0.761
14.1317	0.761
14.1721	0.753
14.2125	0.746
14.2528	0.746
14.2932	0.741
14.3336	0.73
14.3739	0.724
14.4143	0.719
14.4547	0.717
14.495	0.724
14.5354	0.732
14.5758	0.74
14.6162	0.746
14.6565	0.753
14.6969	0.758
14.7373	0.764
14.7776	0.766
14.818	0.771
14.8584	0.775
14.8988	0.779
14.9391	0.78
14.9795	0.779
15.0199	0.756
15.0602	0.676
15.1006	0.615
15.141	0.602
15.1814	0.65
15.2217	0.678
15.2621	0.722
15.3025	0.743
15.3428	0.753
15.3832	0.762
15.4236	0.767
