Infrared Spectrum: Naphthalene-2,6-dicarboxylic acid, dimethyl ester
Formula: C 14 H 12 O 4
CAS: 840-65-3
State: gas
Instrument: HP-GC/MS/IRD
Origin: NIST Mass Spectrometry Data Center
1/CM	ABSORBANCE
550	0.0011096
562	0.0003743
574	0.0004237
586	0.0003382
598	0.0002964
610	0.000152
622	0.0001748
634	0.0002565
646	0.0003249
658	0.0001444
670	9.69e-05
682	0.0002071
694	0.0001254
706	9.5e-05
718	7.6e-05
730	0.0001501
742	0.0002622
754	0.0006479
766	0.0021793
778	0.0027626
790	0.000988
802	0.0003895
814	0.000665
826	0.0007581
838	0.0002755
850	0.0002432
862	0.0002888
874	0.0003344
886	0.0004598
898	0.0004503
910	0.0008664
922	0.0008189
934	0.0003705
946	0.0003458
958	0.0004161
970	0.0007904
982	0.0009899
994	0.0012217
1006	0.0004617
1018	0.0004009
1030	0.0004104
1042	0.0004427
1054	0.0005225
1066	0.000874
1078	0.0021679
1090	0.0059204
1102	0.0036024
1114	0.0016454
1126	0.0025764
1138	0.0045106
1150	0.0024871
1162	0.0036936
1174	0.0088312
1186	0.0067241
1198	0.0033497
1210	0.0027531
1222	0.0031578
1234	0.003287
1246	0.0084132
1258	0.019
1270	0.011514
1282	0.0127547
1294	0.0052079
1306	0.0020634
1318	0.0012331
1330	0.0014725
1342	0.0018867
1354	0.0011115
1366	0.0012958
1378	0.0013262
1390	0.0008037
1402	0.0007752
1414	0.000684
1426	0.0008721
1438	0.0036005
1450	0.0011419
1462	0.0007315
1474	0.000703
1486	0.0006099
1498	0.0006384
1510	0.0005396
1522	0.0003857
1534	0.0003477
1546	0.0003895
1558	0.0004275
1570	0.0003781
1582	0.0004104
1594	0.0005339
1606	0.0008246
1618	0.00038
1630	0.0003192
1642	0.0003591
1654	0.0004769
1666	0.0003952
1678	0.0004693
1690	0.0007505
1702	0.0011989
1714	0.0014269
1726	0.0031578
1738	0.0137579
1750	0.0133323
1762	0.0026163
1774	0.0011647
1786	0.001045
1798	0.0007125
1810	0.0004313
1822	0.0003287
1834	0.0002907
1846	0.0002318
1858	0.000171
1870	0.0002261
1882	0.00019
1894	0.0001843
1906	0.0001349
1918	0.0002413
1930	0.0002584
1942	0.0001862
1954	0.0001216
1966	0.0001159
1978	0.000133
1990	0.0001653
2002	9.31e-05
2014	0.0001102
2026	0.0001102
2038	0.0001596
2050	0.000114
2062	0.0001482
2074	0.0001862
2086	0.0001482
2098	0.000133
2110	7.03e-05
2122	9.12e-05
2134	0.0001159
2146	7.6e-05
2158	7.03e-05
2170	7.41e-05
2182	6.46e-05
2194	4.56e-05
2206	3.23e-05
2218	5.13e-05
2230	3.99e-05
2242	1.14e-05
2254	3.8e-05
2266	3.99e-05
2278	3.61e-05
2290	6.08e-05
2302	8.93e-05
2314	8.55e-05
2326	0.0001178
2338	9.5e-05
2350	9.69e-05
2362	0.0001425
2374	9.31e-05
2386	7.22e-05
2398	7.41e-05
2410	8.74e-05
2422	6.27e-05
2434	6.84e-05
2446	7.6e-05
2458	7.41e-05
2470	5.51e-05
2482	4.75e-05
2494	7.22e-05
2506	2.85e-05
2518	6.65e-05
2530	9.88e-05
2542	4.18e-05
2554	6.27e-05
2566	6.84e-05
2578	8.17e-05
2590	4.37e-05
2602	6.08e-05
2614	0.0001007
2626	6.65e-05
2638	7.03e-05
2650	8.55e-05
2662	7.03e-05
2674	9.12e-05
2686	5.13e-05
2698	5.89e-05
2710	7.98e-05
2722	0.0001026
2734	8.55e-05
2746	5.32e-05
2758	9.31e-05
2770	9.31e-05
2782	7.41e-05
2794	8.55e-05
2806	9.12e-05
2818	0.000114
2830	0.0001653
2842	0.0003021
2854	0.000513
2866	0.0002052
2878	0.0001805
2890	0.0003059
2902	0.0004313
2914	0.0004731
2926	0.0004902
2938	0.0005225
2950	0.0011077
2962	0.0032281
2974	0.0009025
2986	0.0005586
2998	0.0006175
3010	0.0006061
3022	0.0005795
3034	0.0006441
3046	0.0005187
3058	0.0004408
3070	0.0005035
3082	0.0005491
3094	0.0003154
3106	0.0002033
3118	0.0001881
3130	0.0001425
3142	0.0001159
3154	0.0001653
3166	0.0001558
3178	0.000152
3190	0.0001368
3202	0.0001843
3214	0.000209
3226	0.0001596
3238	0.0001976
3250	0.0001444
3262	9.5e-05
3274	9.88e-05
3286	0.0001615
3298	0.0002147
3310	0.0001425
3322	0.0001938
3334	0.000114
3346	0.0001311
3358	0.0001064
3370	0.0001159
3382	0.0001596
3394	0.0001406
3406	0.0001311
3418	0.0001064
3430	0.0001064
3442	0.0001577
3454	0.0001482
3466	0.0002698
3478	0.0002812
3490	0.0001824
3502	0.0001501
3514	0.0001083
3526	0.0001482
3538	0.0001349
3550	0.0001406
3562	0.000133
3574	0.00019
3586	0.0001767
3598	0.0001444
3610	0.00019
3622	0.0001463
3634	0.0001653
3646	0.0001653
3658	0.0001197
3670	9.69e-05
3682	0.000114
3694	4.75e-05
3706	9.69e-05
3718	0.0001444
3730	0.0001159
3742	0.00019
3754	0.0001216
3766	8.36e-05
3778	7.6e-06
3790	5.32e-05
3802	4.18e-05
3814	3.61e-05
3826	6.46e-05
3838	7.79e-05
