Infrared Spectrum: Valeric acid, 2,2-diphenyl-
Formula: C17 H18 O2
CAS: 841-32-7
State: SOLID (KBr DISC)
Class: COBLENTZ III
Instrument: PERKIN-ELMER 21 (GRATING)
Instrument parameters: NaCl PRISM
Sampling: TRANSMISSION
Resolution: 2
Origin: SMITH, KLINE & FRENCH LABS.
1/CM	TRANSMITTANCE
674	0.6568
683	0.5722
692	0.2647
701	0.0677
710	0.58
719	0.512
728	0.2333
737	0.5989
746	0.7219
755	0.3849
764	0.3277
773	0.7128
782	0.5626
791	0.824
800	0.8166
809	0.8207
818	0.8125
827	0.7886
836	0.7721
845	0.7343
854	0.69
863	0.7115
872	0.7299
881	0.6962
890	0.6487
899	0.6729
908	0.6065
917	0.5226
926	0.4203
935	0.3077
944	0.2556
953	0.3554
962	0.4521
971	0.5437
980	0.6407
989	0.6232
998	0.6718
1007	0.6393
1016	0.6746
1025	0.5809
1034	0.4413
1043	0.6932
1052	0.7112
1061	0.6714
1070	0.6726
1079	0.6623
1088	0.6394
1097	0.5811
1106	0.5643
1115	0.5672
1124	0.4941
1133	0.5492
1142	0.6949
1151	0.6716
1160	0.6092
1169	0.5815
1178	0.5805
1187	0.5021
1196	0.4188
1205	0.3781
1214	0.5734
1223	0.5749
1232	0.4565
1241	0.2212
1250	0.3362
1259	0.4144
1268	0.3414
1277	0.3236
1286	0.2457
1295	0.2657
1304	0.3158
1313	0.611
1322	0.5326
1331	0.5539
1340	0.6827
1349	0.6999
1358	0.6708
1367	0.6103
1376	0.6058
1385	0.5003
1394	0.5275
1403	0.3304
1412	0.3609
1421	0.6066
1430	0.6358
1439	0.4705
1448	0.261
1457	0.425
1466	0.4547
1475	0.5729
1484	0.5797
1493	0.391
1502	0.2943
1511	0.5467
1520	0.7311
1529	0.742
1538	0.7281
1547	0.7031
1556	0.6949
1565	0.6963
1574	0.6729
1583	0.608
1592	0.5708
1601	0.5095
1610	0.5138
1619	0.5663
1628	0.5618
1637	0.5535
1646	0.5312
1655	0.4884
1664	0.4203
1673	0.3267
1682	0.1998
1691	0.0799
1700	0.032
1709	0.0545
1718	0.1892
1727	0.3864
1736	0.5293
1745	0.6858
1754	0.7014
1763	0.6976
1772	0.6872
1781	0.6801
1790	0.6733
1799	0.6658
1808	0.6473
1817	0.6235
1826	0.619
1835	0.6354
1844	0.6559
1853	0.6692
1862	0.6837
1871	0.6837
1880	0.664
1889	0.6337
1898	0.6539
1907	0.6687
1916	0.6822
1925	0.6948
1934	0.698
1943	0.694
1952	0.6856
1961	0.6741
1970	0.6697
1979	0.6793
1988	0.6902
1997	0.697
2006	0.7053
2015	0.7113
2024	0.712
2033	0.7117
2042	0.7094
2051	0.7071
2060	0.7048
2069	0.702
2078	0.6953
2087	0.6906
2096	0.7087
2105	0.7106
2114	0.7098
2123	0.7056
2132	0.7009
2141	0.6927
2150	0.6856
2159	0.6795
2168	0.6764
2177	0.6734
2186	0.6703
2195	0.6677
2204	0.6652
2213	0.6603
2222	0.6513
2231	0.6481
2240	0.6439
2249	0.6387
2258	0.6354
2267	0.632
2276	0.6234
2285	0.615
2294	0.6039
2303	0.5973
2312	0.5909
2321	0.5853
2330	0.58
2339	0.5756
2348	0.5712
2357	0.5655
2366	0.5596
2375	0.5538
2384	0.5478
2393	0.5411
2402	0.5334
2411	0.5258
2420	0.5206
2429	0.5089
2438	0.4948
2447	0.4743
2456	0.4534
2465	0.439
2474	0.4154
2483	0.4059
2492	0.4022
2501	0.3863
2510	0.3676
2519	0.3575
2528	0.3554
2537	0.3545
2546	0.3455
2555	0.3325
2564	0.3222
2573	0.3138
2582	0.3074
2591	0.3017
2600	0.2967
2609	0.2917
2618	0.2888
2627	0.2901
2636	0.2918
2645	0.2973
2654	0.3034
2663	0.3067
2672	0.3089
2681	0.311
2690	0.3108
2699	0.3101
2708	0.3093
2717	0.3043
2726	0.2956
2735	0.2855
2744	0.2759
2753	0.2615
2762	0.2502
2771	0.24
2780	0.2274
2789	0.2165
2798	0.2134
2807	0.2111
2816	0.208
2825	0.2015
2834	0.1923
2843	0.1838
2852	0.1765
2861	0.1712
2870	0.1712
2879	0.1727
2888	0.1726
2897	0.1712
2906	0.1693
2915	0.169
2924	0.1691
2933	0.1647
2942	0.1584
2951	0.1566
2960	0.158
2969	0.1615
2978	0.167
2987	0.1816
2996	0.1924
3005	0.1943
3014	0.1954
3023	0.1967
3032	0.1981
3041	0.2009
3050	0.2074
3059	0.2191
3068	0.2375
3077	0.2565
3086	0.2877
3095	0.3011
3104	0.3066
3113	0.3161
3122	0.353
3131	0.3764
3140	0.3892
3149	0.4046
3158	0.4211
3167	0.4363
3176	0.4446
3185	0.4552
3194	0.4643
3203	0.4732
3212	0.4822
3221	0.491
3230	0.4999
3239	0.5094
3248	0.5205
3257	0.5272
3266	0.5367
3275	0.5554
3284	0.5685
3293	0.5751
3302	0.5806
3311	0.5837
3320	0.5856
3329	0.5873
3338	0.5889
3347	0.5906
3356	0.5922
3365	0.5942
3374	0.5963
3383	0.5966
3392	0.5965
3401	0.5964
3410	0.5962
3419	0.5962
3428	0.5963
3437	0.5964
3446	0.5971
3455	0.598
3464	0.5998
3473	0.6021
3482	0.6046
3491	0.6076
3500	0.6113
3509	0.6232
3518	0.6293
3527	0.6315
3536	0.6336
3545	0.6359
3554	0.6403
3563	0.6505
3572	0.6603
3581	0.6657
3590	0.6688
3599	0.671
3608	0.6793
3617	0.6831
3626	0.684
3635	0.6835
3644	0.6826
3653	0.6811
3662	0.6795
3671	0.6772
3680	0.675
3689	0.673
3698	0.671
3707	0.6696
3716	0.6686
3725	0.6678
3734	0.67
3743	0.6735
3752	0.6777
3761	0.6802
3770	0.6822
3779	0.6832
3788	0.6831
3797	0.6817
3806	0.6803
3815	0.679
3824	0.6781
3833	0.6773
3842	0.6765
3851	0.676
3860	0.6754
3869	0.6739
3878	0.672
3887	0.6703
3896	0.6694
3905	0.6685
3914	0.6675
3923	0.6666
3932	0.6657
3941	0.6648
3950	0.6639
3959	0.6629
3968	0.6621
3977	0.661
3986	0.6596
3995	0.6579
