Infrared Spectrum: Benzimidazole, 5-chloro-2-methyl-1-phenyl-
Formula: C14 H11 Cl N2
CAS: 84100-59-4
State: SOLUTION (10% CCl4 FOR 3800-1335, 10% CS2 FOR 1335-400 CM^-^1) VS SOLVENT
Class: COBLENTZ III
Instrument: DOW KBr FOREPRISM-GRATING
Instrument parameters: BLAZED AT 3.5, 12.0, 20.0 MICRON AND CHANGED AT 5.0, 7.5, 14.9 MICRON
Sampling: TRANSMISSION
Path length: 0.011 CM, 0.010 CM
Resolution: 2
Origin: DOW CHEMICAL COMPANY
1/CM	TRANSMITTANCE
3796	0.8538
3787	0.8541
3778	0.8545
3769	0.8549
3760	0.8553
3751	0.8559
3742	0.8566
3733	0.8574
3724	0.8575
3715	0.8574
3706	0.8563
3697	0.8533
3688	0.8504
3679	0.8493
3670	0.8485
3661	0.8485
3652	0.8486
3643	0.8486
3634	0.8487
3625	0.8488
3616	0.849
3607	0.8491
3598	0.8493
3589	0.8494
3580	0.8496
3571	0.8498
3562	0.85
3553	0.8502
3544	0.8504
3535	0.8505
3526	0.85
3517	0.8495
3508	0.849
3499	0.8485
3490	0.848
3481	0.8468
3472	0.8459
3463	0.8449
3454	0.844
3445	0.843
3436	0.842
3427	0.8408
3418	0.8395
3409	0.838
3400	0.8367
3391	0.8357
3382	0.8347
3373	0.8342
3364	0.8343
3355	0.8345
3346	0.8365
3337	0.8378
3328	0.8392
3319	0.8405
3310	0.842
3301	0.8434
3292	0.8445
3283	0.8452
3274	0.8458
3265	0.8454
3256	0.8452
3247	0.8448
3238	0.8443
3229	0.8434
3220	0.8425
3211	0.8417
3202	0.8406
3193	0.8394
3184	0.8382
3175	0.8371
3166	0.8362
3157	0.8344
3148	0.8323
3139	0.8294
3130	0.8245
3121	0.8193
3112	0.8132
3103	0.8025
3094	0.7897
3085	0.7821
3076	0.7675
3067	0.7051
3058	0.7033
3049	0.7191
3040	0.7215
3031	0.7471
3022	0.7783
3013	0.7882
3004	0.7893
2995	0.7993
2986	0.805
2977	0.8021
2968	0.7872
2959	0.7804
2950	0.7793
2941	0.7718
2932	0.7172
2923	0.705
2914	0.7494
2905	0.7845
2896	0.7986
2887	0.8048
2878	0.8067
2869	0.806
2860	0.799
2851	0.7871
2842	0.8072
2833	0.8206
2824	0.8268
2815	0.8296
2806	0.83
2797	0.83
2788	0.8301
2779	0.8303
2770	0.8307
2761	0.8317
2752	0.833
2743	0.8339
2734	0.8339
2725	0.8338
2716	0.833
2707	0.8321
2698	0.8305
2689	0.8287
2680	0.827
2671	0.8266
2662	0.8263
2653	0.8261
2644	0.8268
2635	0.8275
2626	0.8282
2617	0.8294
2608	0.8307
2599	0.8318
2590	0.8327
2581	0.8334
2572	0.8337
2563	0.8332
2554	0.8308
2545	0.8284
2536	0.827
2527	0.8265
2518	0.8295
2509	0.8313
2500	0.8328
2491	0.8339
2482	0.8339
2473	0.8332
2464	0.8315
2455	0.8307
2446	0.8305
2437	0.8316
2428	0.8328
2419	0.8341
2410	0.8349
2401	0.8355
2392	0.8361
2383	0.8366
2374	0.8371
2365	0.8373
2356	0.8367
2347	0.8368
2338	0.8374
2329	0.8387
2320	0.8401
2311	0.8415
2302	0.8421
2293	0.8421
2284	0.8413
2275	0.8403
2266	0.8384
2257	0.8374
2248	0.8374
2239	0.8398
2230	0.8416
2221	0.8425
2212	0.8431
2203	0.8432
2194	0.8436
2185	0.8444
2176	0.8451
2167	0.8452
2158	0.8454
2149	0.846
2140	0.8441
2131	0.8425
2122	0.8428
2113	0.8434
2104	0.8441
2095	0.8449
2086	0.8462
2077	0.8474
2068	0.848
2059	0.8481
2050	0.8478
2041	0.8474
2032	0.8462
2023	0.846
2014	0.8463
2005	0.841
1996	0.8327
1987	0.8361
1978	0.8278
1969	0.8168
1960	0.8262
1951	0.8053
1942	0.8303
1933	0.8357
1924	0.8355
1915	0.8335
1906	0.8275
1897	0.8271
1888	0.8201
1879	0.823
1870	0.8211
1861	0.8086
1852	0.8004
1843	0.82
1834	0.8274
1825	0.8291
1816	0.8291
1807	0.8169
1798	0.8199
1789	0.8308
1780	0.8277
1771	0.8246
1762	0.8225
1753	0.8218
1744	0.804
1735	0.7831
1726	0.7893
1717	0.8071
1708	0.8146
1699	0.813
1690	0.8193
1681	0.813
1672	0.8126
1663	0.8107
1654	0.8078
1645	0.7987
1636	0.7847
1627	0.7565
1618	0.6993
1609	0.6183
1600	0.209
1591	0.5251
1582	0.6699
1573	0.7756
1564	0.785
1555	0.7778
1546	0.7378
1537	0.6365
1528	0.2391
1519	0.2652
1510	0.461
1501	0.0241
1492	0.5645
1483	0.6556
1474	0.2096
1465	0.3106
1456	0.0592
1447	0.3466
1438	0.377
1429	0.2583
1420	0.6108
1411	0.6312
1402	0.4948
1393	0.0743
1384	0.3408
1375	0.3777
1366	0.6901
1357	0.7444
1348	0.7304
1339	0.6647
1330	0.6003
1321	0.2798
1312	0.2845
1303	0.3743
1294	0.6947
1285	0.7108
1276	0.7746
1267	0.7768
1258	0.5849
1249	0.7048
1240	0.7448
1231	0.7951
1222	0.814
1213	0.8183
1204	0.7986
1195	0.4925
1186	0.7258
1177	0.6635
1168	0.7351
1159	0.7842
1150	0.8071
1141	0.8265
1132	0.8225
1123	0.8051
1114	0.8293
1105	0.8337
1096	0.8285
1087	0.8082
1078	0.7111
1069	0.7334
1060	0.3286
1051	0.6465
1042	0.7418
1033	0.6696
1024	0.7275
1015	0.4568
1006	0.5871
997	0.7435
988	0.8078
979	0.8185
970	0.816
961	0.8217
952	0.8178
943	0.808
934	0.7481
925	0.7082
916	0.2126
907	0.6922
898	0.4003
889	0.7931
880	0.7946
871	0.6182
862	0.4591
853	0.803
844	0.8169
835	0.8087
826	0.816
817	0.8068
808	0.7643
799	0.2087
790	0.5286
781	0.7945
772	0.7758
763	0.4716
754	0.3812
745	0.7532
736	0.7225
727	0.6919
718	0.7933
709	0.7481
700	0.4217
691	0.4139
682	0.7804
673	0.8128
664	0.6964
655	0.7625
646	0.8306
637	0.842
628	0.8407
619	0.7656
610	0.808
601	0.7861
592	0.4893
583	0.3896
574	0.8045
565	0.8248
556	0.8181
547	0.7899
538	0.2719
529	0.7989
520	0.8108
511	0.8119
502	0.8096
493	0.7941
484	0.7493
475	0.8165
466	0.8338
457	0.8373
448	0.8289
439	0.7928
430	0.6458
421	0.8271
412	0.85
403	0.8462
