Infrared Spectrum: 2-Chloro-4-fluorobenzaldehyde
Formula: C 7 H 4 Cl F O
CAS: 84194-36-5
State: gas
Origin: EPA-IR VAPOR PHASE LIBRARY
1/CM	ABSORBANCE
549.8	0.0012225
559.445	0.0015949
569.09	0.0013967
578.734	0.003683
588.379	0.005453
598.024	0.008103
607.669	0.015463
617.313	0.018633
626.958	0.012823
636.603	0.004763
646.248	0.003193
655.893	0.003043
665.537	0.003383
675.182	0.004473
684.827	0.007993
694.472	0.007243
704.116	0.002183
713.761	0.0008984
723.406	0.0009925
733.051	0.0014538
742.695	0.002113
752.34	0.003003
761.985	0.004313
771.63	0.006433
781.275	0.012853
790.919	0.019563
800.564	0.017903
810.209	0.021623
819.854	0.033433
829.498	0.018853
839.143	0.009113
848.788	0.015883
858.433	0.036053
868.078	0.037883
877.722	0.024873
887.367	0.020893
897.012	0.033203
906.657	0.079363
916.301	0.089663
925.946	0.038523
935.591	0.013583
945.236	0.004313
954.88	0.001843
964.525	0.002523
974.17	0.0015565
983.815	0.001514
993.46	0.002293
1003.1	0.002793
1012.75	0.004163
1022.39	0.007943
1032.04	0.023213
1041.68	0.035703
1051.33	0.025803
1060.97	0.008033
1070.62	0.003723
1080.26	0.002913
1089.91	0.004053
1099.55	0.004373
1109.2	0.005083
1118.84	0.004843
1128.49	0.005323
1138.13	0.003313
1147.78	0.003843
1157.42	0.005153
1167.07	0.007973
1176.71	0.008273
1186.36	0.007353
1196	0.009753
1205.64	0.022883
1215.29	0.091093
1224.93	0.199293
1234.58	0.176783
1244.22	0.050283
1253.87	0.039783
1263.51	0.039073
1273.16	0.022533
1282.8	0.011593
1292.45	0.009693
1302.09	0.007223
1311.74	0.004283
1321.38	0.003493
1331.03	0.003133
1340.67	0.003223
1350.32	0.004593
1359.96	0.006653
1369.61	0.015863
1379.25	0.041073
1388.9	0.044883
1398.54	0.024913
1408.18	0.017273
1417.83	0.009863
1427.47	0.005793
1437.12	0.009753
1446.76	0.013053
1456.41	0.011983
1466.05	0.015963
1475.7	0.046813
1485.34	0.073113
1494.99	0.043603
1504.63	0.010153
1514.28	0.007543
1523.92	0.008943
1533.57	0.011353
1543.21	0.011383
1552.86	0.014373
1562.5	0.029073
1572.15	0.060733
1581.79	0.116533
1591.44	0.206403
1601.08	0.208693
1610.73	0.080323
1620.37	0.024143
1630.01	0.019193
1639.66	0.017583
1649.3	0.014343
1658.95	0.010973
1668.59	0.012163
1678.24	0.018563
1687.88	0.032903
1697.53	0.069533
1707.17	0.176643
1716.82	0.203953
1726.46	0.099923
1736.11	0.033883
1745.75	0.015843
1755.4	0.006033
1765.04	0.004943
1774.69	0.005033
1784.33	0.004993
1793.98	0.005073
1803.62	0.004333
1813.27	0.003213
1822.91	0.002133
1832.55	0.002283
1842.2	0.002183
1851.84	0.002083
1861.49	0.002473
1871.13	0.002193
1880.78	0.002423
1890.42	0.002773
1900.07	0.003363
1909.71	0.003683
1919.36	0.003023
1929	0.002633
1938.65	0.002763
1948.29	0.003283
1957.94	0.003493
1967.58	0.002803
1977.23	0.002773
1986.87	0.001913
1996.52	0.001504
2006.16	0.0016972
2015.81	0.0015687
2025.45	0.0015693
2035.1	0.0016568
2044.74	0.001943
2054.38	0.0017564
2064.03	0.0016187
2073.67	0.001773
2083.32	0.0017171
2092.96	0.0016119
2102.61	0.0014876
2112.25	0.001853
2121.9	0.002193
2131.54	0.002543
2141.19	0.003043
2150.83	0.002173
2160.48	0.001863
2170.12	0.002253
2179.77	0.001953
2189.41	0.0017247
2199.06	0.001813
2208.7	0.0015997
2218.35	0.001536
2227.99	0.0015811
2237.64	0.0016316
2247.28	0.0017559
2256.92	0.001843
2266.57	0.002313
2276.21	0.002043
2285.86	0.002083
2295.5	0.001873
2305.15	0.0017405
2314.79	0.001863
2324.44	0.002283
2334.08	0.001953
2343.73	0.001386
2353.37	0.00175
2363.02	0.001913
2372.66	0.0017291
2382.31	0.0015609
2391.95	0.0016251
2401.6	0.001863
2411.24	0.001783
2420.89	0.001993
2430.53	0.001993
2440.18	0.002283
2449.82	0.002633
2459.47	0.002543
2469.11	0.002303
2478.75	0.002433
2488.4	0.002253
2498.04	0.002623
2507.69	0.002723
2517.33	0.002733
2526.98	0.002213
2536.62	0.002493
2546.27	0.003063
2555.91	0.002903
2565.56	0.003303
2575.2	0.002793
2584.85	0.002313
2594.49	0.001983
2604.14	0.001993
2613.78	0.002363
2623.43	0.002233
2633.07	0.002593
2642.72	0.002293
2652.36	0.002723
2662.01	0.003393
2671.65	0.003643
2681.29	0.003633
2690.94	0.003583
2700.58	0.004333
2710.23	0.006183
2719.87	0.007773
2729.52	0.008293
2739.16	0.007943
2748.81	0.010743
2758.45	0.010683
2768.1	0.008253
2777.74	0.006023
2787.39	0.005223
2797.03	0.005573
2806.68	0.004683
2816.32	0.005093
2825.97	0.004533
2835.61	0.006633
2845.26	0.012063
2854.9	0.025833
2864.55	0.037183
2874.19	0.025743
2883.84	0.011453
2893.48	0.005933
2903.12	0.003563
2912.77	0.002753
2922.41	0.002553
2932.06	0.003283
2941.7	0.003273
2951.35	0.002713
2960.99	0.002823
2970.64	0.002333
2980.28	0.002583
2989.93	0.002403
2999.57	0.003183
3009.22	0.003103
3018.86	0.002633
3028.51	0.0015595
3038.15	0.002213
3047.8	0.0015489
3057.44	0.002393
3067.09	0.002643
3076.73	0.004383
3086.38	0.005163
3096.02	0.004173
3105.67	0.002963
3115.31	0.003103
3124.95	0.002353
3134.6	0.002403
3144.24	0.001549
3153.89	0.002403
3163.53	0.002113
3173.18	0.002423
3182.82	0.0017273
3192.47	0.0007225
3202.11	0.000443
3211.76	0.0011121
3221.4	0.0009717
3231.05	0.0013879
3240.69	0.001272
3250.34	0.0012778
3259.98	0.0014833
3269.63	0.0015218
3279.27	0.0015447
3288.92	0.001773
3298.56	0.0016401
3308.21	0.001933
3317.85	0.0012201
3327.49	0.00137
3337.14	0.0013313
3346.78	0.0009683
3356.43	0.001793
3366.07	0.0013793
3375.72	0.0017118
3385.36	0.002713
3395.01	0.004613
3404.65	0.005793
3414.3	0.004023
3423.94	0.003053
3433.59	0.002443
3443.23	0.002093
3452.88	0.0015516
3462.52	0.001913
3472.17	0.0016078
3481.81	0.00065
3491.46	0.0010726
3501.1	0.0010434
3510.75	0.0011801
3520.39	0.001526
3530.04	0.0010323
3539.68	0.0016247
3549.32	0.00085556
3558.97	0.0011283
3568.61	0.0011086
3578.26	0.000488
3587.9	0.0007503
3597.55	0.0011215
3607.19	0.0013393
3616.84	0.0011362
3626.48	0.0016108
3636.13	0.0010104
3645.77	0.000538
3655.42	0.0016778
3665.06	0.0010805
3674.71	0.0011705
3684.35	0.0012019
3694	0.0014075
3703.64	0.0012596
3713.29	0.000698
3722.93	0.001339
3732.58	0.0011851
3742.22	0.001663
3751.86	0.000947
3761.51	0.0015798
3771.15	0.0010887
3780.8	0.0015198
3790.44	0.0013664
3800.09	0.000451
3809.73	0.0010828
3819.38	0.000741
3829.02	0.0013344
3838.67	0.0010638
3848.31	0.001933
3857.96	0.00035
3867.6	0.0013761
3877.25	0.0011914
3886.89	0.001374
3896.54	0.0010709
3906.18	0.001131
3915.83	0.0012245
3925.47	0.0013479
3935.12	0.0013607
3944.76	0.001963
3954.41	0.0015297
3964.05	0.0008829
3973.69	0.0006788
3983.34	0.0010816
3992.98	0.002193
