Infrared Spectrum: 2-NAPHTHOL, 1-(PHENYLAZO)-
Formula: C16 H12 N2 O
CAS: 842-07-9
State: SOLID (KBr DISC)
Class: COBLENTZ III
Instrument: CARY 90 (GRATING)
Instrument parameters: ORDER CHANGES: 3000, 2000, 1200 CM^-^1
Sampling: TRANSMISSION
Resolution: 2
Origin: WESTERN REGIONAL RES. USDA
1/CM	TRANSMITTANCE
4006	0.8125
3997	0.8128
3988	0.8133
3979	0.8132
3970	0.8111
3961	0.809
3952	0.8069
3943	0.8058
3934	0.8051
3925	0.8048
3916	0.8053
3907	0.8056
3898	0.8054
3889	0.8051
3880	0.8046
3871	0.8039
3862	0.8035
3853	0.8041
3844	0.8047
3835	0.8053
3826	0.8055
3817	0.8053
3808	0.8051
3799	0.8051
3790	0.805
3781	0.8051
3772	0.8051
3763	0.8053
3754	0.8054
3745	0.8051
3736	0.8046
3727	0.804
3718	0.8034
3709	0.8026
3700	0.8019
3691	0.8012
3682	0.8004
3673	0.7994
3664	0.798
3655	0.7958
3646	0.7936
3637	0.7878
3628	0.7817
3619	0.7725
3610	0.7634
3601	0.7535
3592	0.7435
3583	0.7342
3574	0.7251
3565	0.7156
3556	0.706
3547	0.6948
3538	0.6837
3529	0.6728
3520	0.664
3511	0.6569
3502	0.651
3493	0.6461
3484	0.6408
3475	0.6346
3466	0.6297
3457	0.6271
3448	0.6269
3439	0.6275
3430	0.6301
3421	0.6339
3412	0.6428
3403	0.6557
3394	0.6682
3385	0.6799
3376	0.6886
3367	0.6974
3358	0.7065
3349	0.7158
3340	0.725
3331	0.7325
3322	0.7387
3313	0.7445
3304	0.7494
3295	0.7538
3286	0.7583
3277	0.7628
3268	0.7675
3259	0.7721
3250	0.7764
3241	0.7806
3232	0.7837
3223	0.7858
3214	0.7876
3205	0.7895
3196	0.7911
3187	0.7928
3178	0.7938
3169	0.795
3160	0.7948
3151	0.7941
3142	0.7937
3133	0.7931
3124	0.7915
3115	0.7848
3106	0.7751
3097	0.775
3088	0.7696
3079	0.7406
3070	0.7161
3061	0.7126
3052	0.7175
3043	0.7286
3034	0.7411
3025	0.7549
3016	0.7664
3007	0.7767
2998	0.7858
2989	0.7932
2980	0.7982
2971	0.8001
2962	0.8006
2953	0.8006
2944	0.8017
2935	0.8037
2926	0.8068
2917	0.8115
2908	0.8169
2899	0.8214
2890	0.8242
2881	0.8262
2872	0.8274
2863	0.8292
2854	0.8333
2845	0.84
2836	0.8468
2827	0.849
2818	0.8489
2809	0.8488
2800	0.8484
2791	0.848
2782	0.8489
2773	0.8501
2764	0.8514
2755	0.8533
2746	0.8553
2737	0.8577
2728	0.8602
2719	0.8627
2710	0.8651
2701	0.8662
2692	0.8668
2683	0.8668
2674	0.8671
2665	0.8654
2656	0.8655
2647	0.8668
2638	0.8735
2629	0.8764
2620	0.8788
2611	0.8801
2602	0.8812
2593	0.8821
2584	0.8834
2575	0.8845
2566	0.8857
2557	0.8873
2548	0.8899
2539	0.8918
2530	0.8939
2521	0.8954
2512	0.8968
2503	0.8982
2494	0.9002
2485	0.9021
2476	0.9043
2467	0.9066
2458	0.9106
2449	0.9147
2440	0.9188
2431	0.9224
2422	0.9259
2413	0.9285
2404	0.9302
2395	0.9304
2386	0.9307
2377	0.9299
2368	0.9289
2359	0.9287
2350	0.929
2341	0.9294
2332	0.9311
2323	0.9328
2314	0.9347
2305	0.9366
2296	0.9387
2287	0.9409
2278	0.9428
2269	0.9447
2260	0.946
2251	0.9474
2242	0.9495
2233	0.9515
2224	0.9537
2215	0.9558
2206	0.9582
2197	0.9605
2188	0.9628
2179	0.965
2170	0.9665
2161	0.9678
2152	0.9694
2143	0.9708
2134	0.9723
2125	0.9738
2116	0.9755
2107	0.977
2098	0.9786
2089	0.98
2080	0.9812
2071	0.9821
2062	0.9835
2053	0.9847
2044	0.9858
2035	0.987
2026	0.9883
2017	0.9896
2008	0.991
1999	0.9914
1990	0.9905
1981	0.9855
1972	0.9803
1963	0.9766
1954	0.9757
1945	0.9768
1936	0.9812
1927	0.9871
1918	0.9928
1909	0.9953
1900	0.9965
1891	0.9954
1882	0.9935
1873	0.9921
1864	0.9908
1855	0.9918
1846	0.9939
1837	0.9949
1828	0.9877
1819	0.9849
1810	0.9846
1801	0.9873
1792	0.989
1783	0.9901
1774	0.9913
1765	0.9895
1756	0.9874
1747	0.9817
1738	0.9743
1729	0.9684
1720	0.9642
1711	0.9599
1702	0.9577
1693	0.9595
1684	0.9605
1675	0.9516
1666	0.9304
1657	0.9102
1648	0.8795
1639	0.8344
1630	0.724
1621	0.4046
1612	0.6658
1603	0.6637
1594	0.6524
1585	0.7945
1576	0.7528
1567	0.6461
1558	0.5206
1549	0.5362
1540	0.7168
1531	0.6928
1522	0.5655
1513	0.2927
1504	0.0967
1495	0.1782
1486	0.3162
1477	0.4854
1468	0.6718
1459	0.5948
1450	0.2625
1441	0.5458
1432	0.6824
1423	0.7121
1414	0.7075
1405	0.6018
1396	0.5931
1387	0.6139
1378	0.7133
1369	0.7721
1360	0.7988
1351	0.8028
1342	0.7393
1333	0.7333
1324	0.6357
1315	0.6326
1306	0.6934
1297	0.6911
1288	0.6975
1279	0.5609
1270	0.4253
1261	0.4322
1252	0.3592
1243	0.6099
1234	0.5306
1225	0.5756
1216	0.5221
1207	0.3173
1198	0.7901
1189	0.8675
1180	0.7468
1171	0.8223
1162	0.7676
1153	0.5608
1144	0.4127
1135	0.5625
1126	0.7958
1117	0.8856
1108	0.9237
1099	0.9398
1090	0.9604
1081	0.9953
1072	0.9278
1063	0.9862
1054	1.0233
1045	1.0255
1036	1.0201
1027	1.0043
1018	1.0044
1009	1.041
1000	1.0328
991	0.9393
982	0.7361
973	0.962
964	0.9887
955	1.0009
946	0.9935
937	1.0347
928	1.0355
919	1.0225
910	0.9845
901	0.9268
892	0.9831
883	0.9835
874	0.8395
865	0.8033
856	0.8089
847	0.5971
838	0.5585
829	0.7385
820	0.844
811	0.9044
802	0.9466
793	0.9842
784	0.9421
775	0.8514
766	0.6788
757	0.3159
748	0.2929
739	0.7575
730	0.8859
721	0.924
712	0.975
703	0.988
694	0.9021
685	0.6327
676	0.8551
667	0.9552
658	0.9593
649	0.9456
640	0.9736
631	0.976
622	0.9604
613	0.9477
604	0.9456
595	0.9296
586	0.8491
577	0.9381
568	0.9495
559	0.9501
550	0.9181
541	0.8071
532	0.9165
523	0.9653
514	0.9649
505	0.7349
496	0.4802
487	0.7476
