Infrared Spectrum: (4S)-(-)-4-Isopropyl-1,3-oxazolidine-2-thione
Formula: C 6 H 11 N O S
CAS: 84272-19-5
State: gas
Origin: EPA-IR VAPOR PHASE LIBRARY
1/CM	ABSORBANCE
549.8	0.008425
559.445	0.008525
569.09	0.007495
578.734	0.005605
588.379	0.004925
598.024	0.004205
607.669	0.003275
617.313	0.002545
626.958	0.002235
636.603	0.001995
646.248	0.002145
655.893	0.002355
665.537	0.001945
675.182	0.002225
684.827	0.001995
694.472	0.001895
704.116	0.001855
713.761	0.002115
723.406	0.002085
733.051	0.001715
742.695	0.001825
752.34	0.002125
761.985	0.002695
771.63	0.003305
781.275	0.003465
790.919	0.003755
800.564	0.003695
810.209	0.002925
819.854	0.003195
829.498	0.003465
839.143	0.003795
848.788	0.003655
858.433	0.004055
868.078	0.003845
877.722	0.004045
887.367	0.005225
897.012	0.007905
906.657	0.011845
916.301	0.013435
925.946	0.012745
935.591	0.010255
945.236	0.009135
954.88	0.011235
964.525	0.019095
974.17	0.030955
983.815	0.039245
993.46	0.040105
1003.1	0.034765
1012.75	0.024655
1022.39	0.017685
1032.04	0.014405
1041.68	0.015115
1051.33	0.019155
1060.97	0.022375
1070.62	0.017525
1080.26	0.010415
1089.91	0.009835
1099.55	0.009615
1109.2	0.012195
1118.84	0.014265
1128.49	0.015915
1138.13	0.020205
1147.78	0.029615
1157.42	0.050785
1167.07	0.078775
1176.71	0.093955
1186.36	0.084255
1196	0.061085
1205.64	0.040715
1215.29	0.033345
1224.93	0.043325
1234.58	0.078145
1244.22	0.097215
1253.87	0.067565
1263.51	0.033785
1273.16	0.029295
1282.8	0.041705
1292.45	0.053855
1302.09	0.047715
1311.74	0.038975
1321.38	0.043855
1331.03	0.052515
1340.67	0.044795
1350.32	0.031905
1359.96	0.025845
1369.61	0.024555
1379.25	0.025105
1388.9	0.026935
1398.54	0.025005
1408.18	0.019345
1417.83	0.020525
1427.47	0.033885
1437.12	0.071855
1446.76	0.160835
1456.41	0.280185
1466.05	0.293325
1475.7	0.174285
1485.34	0.073315
1494.99	0.035825
1504.63	0.021045
1514.28	0.014275
1523.92	0.010955
1533.57	0.009065
1543.21	0.007695
1552.86	0.005985
1562.5	0.004635
1572.15	0.003605
1581.79	0.003065
1591.44	0.002625
1601.08	0.002465
1610.73	0.002185
1620.37	0.001925
1630.01	0.000712
1639.66	0.00014606
1649.3	0.0009986
1658.95	0.0010643
1668.59	0.0008835
1678.24	0
1687.88	0.0009665
1697.53	0.001485
1707.17	0.001585
1716.82	0.001845
1726.46	0.001855
1736.11	0.002025
1745.75	0.002225
1755.4	0.002015
1765.04	0.001895
1774.69	0.001625
1784.33	0.001445
1793.98	0.001575
1803.62	0.001575
1813.27	0.001595
1822.91	0.001445
1832.55	0.001215
1842.2	0.001185
1851.84	0.001079
1861.49	0.0010921
1871.13	0.001285
1880.78	0.001405
1890.42	0.001585
1900.07	0.001775
1909.71	0.001985
1919.36	0.002115
1929	0.002135
1938.65	0.002545
1948.29	0.002875
1957.94	0.003595
1967.58	0.004405
1977.23	0.005305
1986.87	0.006455
1996.52	0.008125
2006.16	0.010395
2015.81	0.013665
2025.45	0.017875
2035.1	0.022035
2044.74	0.025135
2054.38	0.026365
2064.03	0.024705
2073.67	0.020175
2083.32	0.015405
2092.96	0.012115
2102.61	0.010425
2112.25	0.009565
2121.9	0.009145
2131.54	0.008135
2141.19	0.006915
2150.83	0.005655
2160.48	0.004835
2170.12	0.004015
2179.77	0.003595
2189.41	0.003075
2199.06	0.002535
2208.7	0.002125
2218.35	0.001845
2227.99	0.001455
2237.64	0.001475
2247.28	0.001185
2256.92	0.0011142
2266.57	0.0009988
2276.21	0.001113
2285.86	0.001107
2295.5	0.0010682
2305.15	0.0010739
2314.79	0.0010159
2324.44	0.0009848
2334.08	0.001067
2343.73	0.0011019
2353.37	0.001435
2363.02	0.001235
2372.66	0.0011078
2382.31	0.0009773
2391.95	0.0009062
2401.6	0.0010867
2411.24	0.0011118
2420.89	0.001465
2430.53	0.001435
2440.18	0.001245
2449.82	0.0011308
2459.47	0.0008951
2469.11	0.0008192
2478.75	0.0008009
2488.4	0.000784
2498.04	0.0007774
2507.69	0.0008263
2517.33	0.000886
2526.98	0.0009853
2536.62	0.001185
2546.27	0.0010387
2555.91	0.0009175
2565.56	0.0008564
2575.2	0.0010041
2584.85	0.0008916
2594.49	0.0010539
2604.14	0.0011539
2613.78	0.001205
2623.43	0.001325
2633.07	0.001345
2642.72	0.001365
2652.36	0.001435
2662.01	0.001515
2671.65	0.001515
2681.29	0.001635
2690.94	0.001695
2700.58	0.001765
2710.23	0.001805
2719.87	0.001715
2729.52	0.001795
2739.16	0.002165
2748.81	0.002505
2758.45	0.002625
2768.1	0.002505
2777.74	0.002365
2787.39	0.002065
2797.03	0.002085
2806.68	0.002135
2816.32	0.002505
2825.97	0.002905
2835.61	0.003605
2845.26	0.004715
2854.9	0.007085
2864.55	0.010525
2874.19	0.016765
2883.84	0.024655
2893.48	0.030705
2903.12	0.035675
2912.77	0.037875
2922.41	0.035195
2932.06	0.032155
2941.7	0.031325
2951.35	0.033535
2960.99	0.044325
2970.64	0.068615
2980.28	0.065555
2989.93	0.035555
2999.57	0.016195
3009.22	0.008645
3018.86	0.005145
3028.51	0.003605
3038.15	0.002955
3047.8	0.002395
3057.44	0.001965
3067.09	0.001515
3076.73	0.001355
3086.38	0.001155
3096.02	0.001395
3105.67	0.001405
3115.31	0.001175
3124.95	0.0011467
3134.6	0.0011441
3144.24	0.0010799
3153.89	0.0008642
3163.53	0.0011088
3173.18	0.0010507
3182.82	0.0008645
3192.47	0.001155
3202.11	0.0009249
3211.76	0.0005689
3221.4	0.0006879
3231.05	0.0004114
3240.69	0.0002806
3250.34	0.00022057
3259.98	0.0004889
3269.63	0.00021802
3279.27	0.0003459
3288.92	0.0002522
3298.56	0.0003283
3308.21	0.000497
3317.85	8.31e-05
3327.49	0.0004052
3337.14	0.0005695
3346.78	0.000487
3356.43	0.0003638
3366.07	0.0003659
3375.72	0.0003371
3385.36	0.000272
3395.01	0.0005154
3404.65	0.0004414
3414.3	0.0003212
3423.94	0.0007634
3433.59	0.0007041
3443.23	0.0010926
3452.88	0.002035
3462.52	0.005345
3472.17	0.012805
3481.81	0.023345
3491.46	0.024465
3501.1	0.014555
3510.75	0.005065
3520.39	0.001915
3530.04	0.0010878
3539.68	0.00096
3549.32	0.0009001
3558.97	0.0007568
3568.61	0.0007962
3578.26	0.0004986
3587.9	0.0005354
3597.55	0.0005163
3607.19	0.000461
3616.84	0.0004325
3626.48	0.0007594
3636.13	0.0008974
3645.77	0.001155
3655.42	0.0011397
3665.06	0.0011173
3674.71	0.0008922
3684.35	0.000571
3694	0.0002879
3703.64	0.000339
3713.29	0.0002704
3722.93	0.0004775
3732.58	0.0003789
3742.22	0.0003951
3751.86	0.0007129
3761.51	0.0004066
3771.15	0.0004803
3780.8	0.0002713
3790.44	0.00024315
3800.09	0.0004434
3809.73	0.0005959
3819.38	0.0006012
3829.02	0.0004691
3838.67	0.000602
3848.31	0.0004238
3857.96	0.0004691
3867.6	0.0006382
3877.25	0.0007686
3886.89	0.0004764
3896.54	0.0010031
3906.18	0.0007711
3915.83	0.0007662
3925.47	0.000913
3935.12	0.0009503
3944.76	0.0005346
3954.41	0.0009311
3964.05	0.0009605
3973.69	0.0008253
3983.34	0.0006727
3992.98	0.0005318
