Infrared Spectrum: 2,4-DICHLOROBENZYL(2-HYDROXYETHYL)DIMETHYL AMMONIUM CHLORIDE
Formula: C11 H16 Cl3 N O
CAS: 84309-33-1
Class: COBLENTZ
Instrument: Not specified, most likely a prism, grating, or hybrid spectrometer.
Sampling: TRANSMISSION
Resolution: 4
Origin: DOW CHEMICAL COMPANY
MICROMETERS	TRANSMITTANCE
2.014	0.655
2.04826	0.655
2.08253	0.658
2.11679	0.668
2.15105	0.679
2.18531	0.682
2.21958	0.679
2.25384	0.679
2.2881	0.677
2.32236	0.679
2.35663	0.697
2.39089	0.704
2.42515	0.713
2.45941	0.73
2.49368	0.733
2.52794	0.741
2.5622	0.752
2.59646	0.76
2.63073	0.77
2.66499	0.774
2.69925	0.784
2.73351	0.786
2.76778	0.758
2.80204	0.682
2.8363	0.495
2.87056	0.2
2.90483	0.13
2.93909	0.271
2.97335	0.224
3.00761	0.095
3.04188	0.235
3.07614	0.417
3.1104	0.567
3.14466	0.616
3.17893	0.633
3.21319	0.624
3.24745	0.573
3.28172	0.563
3.31598	0.495
3.35024	0.38
3.3845	0.14
3.41877	0.02
3.45303	0.062
3.48729	0.127
3.52155	0.567
3.55582	0.724
3.59008	0.765
3.62434	0.774
3.6586	0.755
3.69287	0.775
3.72713	0.78
3.76139	0.787
3.79565	0.794
3.82992	0.799
3.86418	0.814
3.89844	0.837
3.9327	0.842
3.96697	0.847
4.00123	0.848
4.03549	0.852
4.06975	0.87
4.10402	0.872
4.13828	0.87
4.17254	0.874
4.2068	0.879
4.24107	0.886
4.27533	0.889
4.30959	0.889
4.34386	0.889
4.37812	0.898
4.41238	0.899
4.44664	0.899
4.48091	0.898
4.51517	0.901
4.54943	0.899
4.58369	0.899
4.61796	0.899
4.65222	0.901
4.68648	0.901
4.72074	0.901
4.75501	0.899
4.78927	0.881
4.82353	0.85
4.85779	0.809
4.89206	0.847
4.92632	0.872
4.96058	0.882
4.99484	0.901
5.02911	0.908
5.06337	0.91
5.09763	0.911
5.13189	0.896
5.16616	0.891
5.20042	0.911
5.23468	0.92
5.26894	0.92
5.30321	0.923
5.33747	0.925
5.37173	0.923
5.40599	0.925
5.44026	0.925
5.47452	0.915
5.50878	0.911
5.54305	0.904
5.57731	0.896
5.61157	0.906
5.64583	0.911
5.6801	0.918
5.71436	0.913
5.74862	0.908
5.78288	0.911
5.81715	0.899
5.85141	0.898
5.88567	0.898
5.91993	0.898
5.9542	0.898
5.98846	0.891
6.02272	0.874
6.05698	0.833
6.09125	0.699
6.12551	0.691
6.15977	0.838
6.19403	0.859
6.2283	0.782
6.26256	0.544
6.29682	0.619
6.33108	0.826
6.36535	0.823
6.39961	0.765
6.43387	0.801
6.46813	0.838
6.5024	0.869
6.53666	0.869
6.57092	0.84
6.60519	0.823
6.63945	0.752
6.67371	0.585
6.70797	0.365
6.74224	0.249
6.7765	0.261
6.81076	0.263
6.84502	0.213
6.87929	0.325
6.91355	0.361
6.94781	0.429
6.98207	0.67
7.01634	0.704
7.0506	0.707
7.08486	0.799
7.11912	0.792
7.15339	0.674
7.18765	0.507
7.22191	0.477
7.25617	0.507
7.29044	0.599
7.3247	0.701
7.35896	0.735
7.39322	0.702
7.42749	0.599
7.46175	0.738
7.49601	0.709
7.53027	0.665
7.56454	0.719
7.5988	0.762
7.63306	0.709
7.66732	0.65
7.70159	0.677
7.73585	0.741
7.77011	0.772
7.80438	0.747
7.83864	0.743
7.8729	0.775
7.90716	0.787
7.94143	0.779
7.97569	0.784
8.00995	0.811
8.04421	0.818
8.07848	0.814
8.11274	0.804
8.147	0.792
8.18126	0.762
8.21553	0.735
8.24979	0.691
8.28405	0.675
8.31831	0.713
8.35258	0.748
8.38684	0.752
8.4211	0.753
8.45536	0.752
8.48963	0.75
8.52389	0.75
8.55815	0.75
8.59241	0.745
8.62668	0.724
8.66094	0.668
8.6952	0.648
8.72946	0.668
8.76373	0.716
8.79799	0.728
8.83225	0.738
8.86652	0.736
8.90078	0.701
8.93504	0.616
8.9693	0.517
9.00357	0.524
9.03783	0.587
9.07209	0.679
9.10635	0.689
9.14062	0.58
9.17488	0.407
9.20914	0.268
9.2434	0.448
9.27767	0.624
9.31193	0.668
9.34619	0.696
9.38045	0.689
9.41472	0.587
9.44898	0.463
9.48324	0.47
9.5175	0.633
9.55177	0.711
9.58603	0.718
9.62029	0.696
9.65455	0.607
9.68882	0.499
9.72308	0.502
9.75734	0.631
9.7916	0.718
9.82587	0.767
9.86013	0.779
9.89439	0.791
9.92865	0.804
9.96292	0.811
9.99718	0.818
10.0314	0.82
10.0657	0.811
10.1	0.787
10.1342	0.723
10.1685	0.602
10.2028	0.473
10.237	0.563
10.2713	0.689
10.3055	0.696
10.3398	0.706
10.3741	0.646
10.4083	0.534
10.4426	0.517
10.4769	0.658
10.5111	0.76
10.5454	0.811
10.5796	0.828
10.6139	0.833
10.6482	0.84
10.6824	0.842
10.7167	0.843
10.751	0.838
10.7852	0.837
10.8195	0.833
10.8537	0.828
10.888	0.818
10.9223	0.808
10.9565	0.792
10.9908	0.741
11.0251	0.677
11.0593	0.56
11.0936	0.444
11.1278	0.349
11.1621	0.295
11.1964	0.405
11.2306	0.551
11.2649	0.558
11.2992	0.595
11.3334	0.718
11.3677	0.767
11.4019	0.764
11.4362	0.723
11.4705	0.657
11.5047	0.558
11.539	0.446
11.5733	0.412
11.6075	0.505
11.6418	0.578
11.676	0.589
11.7103	0.697
11.7446	0.762
11.7788	0.799
11.8131	0.833
11.8474	0.833
11.8816	0.831
11.9159	0.818
11.9501	0.801
11.9844	0.758
12.0187	0.675
12.0529	0.516
12.0872	0.31
12.1215	0.147
12.1557	0.353
12.19	0.645
12.2242	0.76
12.2585	0.794
12.2928	0.83
12.327	0.843
12.3613	0.853
12.3956	0.859
12.4298	0.864
12.4641	0.865
12.4983	0.869
12.5326	0.869
12.5669	0.865
12.6011	0.865
12.6354	0.865
12.6697	0.867
12.7039	0.874
12.7382	0.864
12.7724	0.855
12.8067	0.859
12.841	0.848
12.8752	0.842
12.9095	0.835
12.9438	0.83
12.978	0.825
13.0123	0.808
13.0465	0.78
13.0808	0.719
13.1151	0.624
13.1493	0.519
13.1836	0.502
13.2179	0.628
13.2521	0.714
13.2864	0.769
13.3206	0.786
13.3549	0.794
13.3892	0.799
13.4234	0.799
13.4577	0.797
13.492	0.791
13.5262	0.782
13.5605	0.767
13.5948	0.748
13.629	0.723
13.6633	0.689
13.6975	0.67
13.7318	0.672
13.7661	0.699
13.8003	0.714
13.8346	0.724
13.8689	0.728
13.9031	0.735
13.9374	0.74
13.9716	0.743
14.0059	0.745
14.0402	0.745
14.0744	0.745
14.1087	0.741
14.143	0.738
14.1772	0.735
14.2115	0.728
14.2457	0.719
14.28	0.711
14.3143	0.706
14.3485	0.697
14.3828	0.685
14.4171	0.667
14.4513	0.646
14.4856	0.621
14.5198	0.604
14.5541	0.599
14.5884	0.601
14.6226	0.617
14.6569	0.623
14.6912	0.624
14.7254	0.621
14.7597	0.612
14.7939	0.604
14.8282	0.599
14.8625	0.592
14.8967	0.584
14.931	0.575
14.9653	0.567
14.9995	0.56
15.0338	0.541
15.068	0.534
15.1023	0.528
15.1366	0.519
15.1708	0.512
15.2051	0.505
15.2394	0.5
15.2736	0.49
15.3079	0.483
15.3421	0.473
15.3764	0.468
15.4107	0.46
15.4449	0.451
15.4792	0.443
15.5135	0.432
15.5477	0.421
15.582	0.409
15.6162	0.4
