Infrared Spectrum: 3,5-Difluorocinnamic acid
Formula: C 9 H 6 F 2 O 2
CAS: 84315-23-1
State: gas
Origin: EPA-IR VAPOR PHASE LIBRARY
1/CM	ABSORBANCE
549.8	0.003852
559.445	0.005412
569.09	0.008302
578.734	0.007162
588.379	0.012392
598.024	0.016192
607.669	0.004192
617.313	0.002492
626.958	0.002032
636.603	0.001832
646.248	0.002292
655.893	0.004342
665.537	0.006192
675.182	0.004072
684.827	0.002442
694.472	0.001982
704.116	0.001822
713.761	0.001312
723.406	0.001972
733.051	0.001812
742.695	0.001242
752.34	0.001582
761.985	0.001602
771.63	0.001642
781.275	0.001622
790.919	0.001412
800.564	0.001482
810.209	0.0008914
819.854	0.001902
829.498	0.002372
839.143	0.004742
848.788	0.010732
858.433	0.009462
868.078	0.003882
877.722	0.002632
887.367	0.002352
897.012	0.002192
906.657	0.002162
916.301	0.002012
925.946	0.002422
935.591	0.002542
945.236	0.002712
954.88	0.002582
964.525	0.004432
974.17	0.008562
983.815	0.009962
993.46	0.011432
1003.1	0.010302
1012.75	0.004652
1022.39	0.002642
1032.04	0.001482
1041.68	0.001852
1051.33	0.0011226
1060.97	0.001982
1070.62	0.002572
1080.26	0.003772
1089.91	0.005662
1099.55	0.008712
1109.2	0.022432
1118.84	0.046242
1128.49	0.036382
1138.13	0.021032
1147.78	0.015912
1157.42	0.018132
1167.07	0.012562
1176.71	0.005472
1186.36	0.004082
1196	0.003882
1205.64	0.004702
1215.29	0.004162
1224.93	0.004672
1234.58	0.005672
1244.22	0.007082
1253.87	0.008132
1263.51	0.008982
1273.16	0.008742
1282.8	0.008662
1292.45	0.010332
1302.09	0.010172
1311.74	0.009502
1321.38	0.012012
1331.03	0.017292
1340.67	0.010572
1350.32	0.006432
1359.96	0.006032
1369.61	0.005732
1379.25	0.003582
1388.9	0.002472
1398.54	0.002542
1408.18	0.002402
1417.83	0.003992
1427.47	0.008162
1437.12	0.010472
1446.76	0.009012
1456.41	0.007722
1466.05	0.005712
1475.7	0.004582
1485.34	0.002512
1494.99	0.002492
1504.63	0.002472
1514.28	0.002922
1523.92	0.002392
1533.57	0.002442
1543.21	0.002182
1552.86	0.002732
1562.5	0.003592
1572.15	0.007452
1581.79	0.014462
1591.44	0.019522
1601.08	0.018542
1610.73	0.016512
1620.37	0.017992
1630.01	0.012062
1639.66	0.011482
1649.3	0.011362
1658.95	0.004892
1668.59	0.002682
1678.24	0.002772
1687.88	0.003032
1697.53	0.002612
1707.17	0.003132
1716.82	0.004202
1726.46	0.006502
1736.11	0.010072
1745.75	0.020572
1755.4	0.038842
1765.04	0.033062
1774.69	0.012552
1784.33	0.008242
1793.98	0.006772
1803.62	0.003962
1813.27	0.002592
1822.91	0.002332
1832.55	0.002222
1842.2	0.001932
1851.84	0.001822
1861.49	0.001552
1871.13	0.001452
1880.78	0.001322
1890.42	0.001292
1900.07	0.0010677
1909.71	0.001182
1919.36	0.0011668
1929	0.0010472
1938.65	0.0011526
1948.29	0.0011438
1957.94	0.0010545
1967.58	0.001222
1977.23	0.0010733
1986.87	0.0009804
1996.52	0.0010539
2006.16	0.0010176
2015.81	0.0008403
2025.45	0.0009927
2035.1	0.0007453
2044.74	0.001402
2054.38	0.0010936
2064.03	0.001075
2073.67	0.001212
2083.32	0.0010146
2092.96	0.0010952
2102.61	0.0011703
2112.25	0.001092
2121.9	0.0009906
2131.54	0.0009612
2141.19	0.0009717
2150.83	0.0010409
2160.48	0.0008696
2170.12	0.0009733
2179.77	0.0010402
2189.41	0.0010118
2199.06	0.0009943
2208.7	0.0010317
2218.35	0.0008637
2227.99	0.001402
2237.64	0.0009954
2247.28	0.001222
2256.92	0.001222
2266.57	0.0009969
2276.21	0.0009292
2285.86	0.000884
2295.5	0.001025
2305.15	0.0009947
2314.79	0.001332
2324.44	0.0011148
2334.08	0.0010546
2343.73	0.0011239
2353.37	0.0009113
2363.02	0.001222
2372.66	0.0010636
2382.31	0.001332
2391.95	0.0008534
2401.6	0.0010488
2411.24	0.0006918
2420.89	0.0011558
2430.53	0.001192
2440.18	0.0008355
2449.82	0.001382
2459.47	0.0009857
2469.11	0.0010862
2478.75	0.0011006
2488.4	0.0006098
2498.04	0.0009922
2507.69	0.001202
2517.33	0.0010455
2526.98	0.0009989
2536.62	0.0009582
2546.27	0.0010269
2555.91	0.0011514
2565.56	0.0010917
2575.2	0.001272
2584.85	0.0008288
2594.49	0.0011132
2604.14	0.0010153
2613.78	0.0008726
2623.43	0.0009545
2633.07	0.0008246
2642.72	0.0007079
2652.36	0.0009084
2662.01	0.0008552
2671.65	0.000885
2681.29	0.0007165
2690.94	0.0006499
2700.58	0.0007355
2710.23	0.0007857
2719.87	0.0009893
2729.52	0.0006578
2739.16	0.0009608
2748.81	0.0005592
2758.45	0.0006061
2768.1	0.0009918
2777.74	0.000587
2787.39	0.0004805
2797.03	0.000852
2806.68	0.0008301
2816.32	0.001192
2825.97	0.0009742
2835.61	0.0008882
2845.26	0.0007138
2854.9	0.0007714
2864.55	0.0007471
2874.19	0.0007254
2883.84	0.0007532
2893.48	0.001029
2903.12	0.0010292
2912.77	0.0005485
2922.41	0.0005738
2932.06	0.0007209
2941.7	0.0008013
2951.35	0.0009775
2960.99	0.0008491
2970.64	0.0006571
2980.28	0.0007749
2989.93	0.000821
2999.57	0.0008417
3009.22	0.0010351
3018.86	0.0003985
3028.51	0.001242
3038.15	0.0008632
3047.8	0.0007965
3057.44	0.0008013
3067.09	0.0008662
3076.73	0.001121
3086.38	0.0008984
3096.02	0.0008427
3105.67	0.0005128
3115.31	0.001089
3124.95	0.0005123
3134.6	0.0008934
3144.24	0.0006389
3153.89	0.0008751
3163.53	0.0005033
3173.18	0.0008965
3182.82	0.0009173
3192.47	0.001392
3202.11	0.0004603
3211.76	0.0005415
3221.4	0.0009511
3231.05	0.0011797
3240.69	0.0007293
3250.34	0.0006479
3259.98	0.0007739
3269.63	0.0003153
3279.27	0.001342
3288.92	0.0005558
3298.56	0.0009081
3308.21	0.0008309
3317.85	0.001432
3327.49	0.0007447
3337.14	0.0004288
3346.78	0.0006775
3356.43	0.001342
3366.07	0.0006362
3375.72	0.000973
3385.36	0.000801
3395.01	0.0011418
3404.65	0.001192
3414.3	0.0007978
3423.94	0.0003695
3433.59	0.0004579
3443.23	0.0009278
3452.88	0.0010539
3462.52	0.0010393
3472.17	0.0011617
3481.81	0.001252
3491.46	0.001532
3501.1	0.001692
3510.75	0.0011324
3520.39	0.0009067
3530.04	0.001312
3539.68	0.0010336
3549.32	0.001332
3558.97	0.001452
3568.61	0.003702
3578.26	0.016952
3587.9	0.013252
3597.55	0.002692
3607.19	0.001752
3616.84	0.0007215
3626.48	0.001202
3636.13	0.0010339
3645.77	0.0007934
3655.42	0.000561
3665.06	0.0008529
3674.71	0.0005612
3684.35	0.001282
3694	0.0009162
3703.64	0.0004537
3713.29	0.000607
3722.93	0.001242
3732.58	0.0007588
3742.22	0.001312
3751.86	0.0003902
3761.51	0.001192
3771.15	0.0008088
3780.8	0.001472
3790.44	0.0008963
3800.09	0.00024666
3809.73	0.0007181
3819.38	0.001262
3829.02	0.0009336
3838.67	0.0007856
3848.31	0.001312
3857.96	0.0008918
3867.6	0.001292
3877.25	0.0005226
3886.89	0.000663
3896.54	0.0005122
3906.18	0.001402
3915.83	0.0008411
3925.47	0.0008785
3935.12	0.0010275
3944.76	0.0008574
3954.41	0.0010268
3964.05	0.0009804
3973.69	0.0009154
3983.34	0.001462
3992.98	0.0006264
