Infrared Spectrum: 2,3,4,6-Tetrafluorophenyl isothiocyanate
Formula: C 7 H F 4 N S
CAS: 84348-86-7
State: gas
Origin: EPA-IR VAPOR PHASE LIBRARY
1/CM	ABSORBANCE
549.8	0.013641
559.445	0.012011
569.09	0.010371
578.734	0.009331
588.379	0.007511
598.024	0.007381
607.669	0.013061
617.313	0.018261
626.958	0.011171
636.603	0.007911
646.248	0.006861
655.893	0.007111
665.537	0.008531
675.182	0.008861
684.827	0.010001
694.472	0.010001
704.116	0.008111
713.761	0.005961
723.406	0.003941
733.051	0.002701
742.695	0.003171
752.34	0.004781
761.985	0.004391
771.63	0.002661
781.275	0.003851
790.919	0.006261
800.564	0.013351
810.209	0.034401
819.854	0.086251
829.498	0.138281
839.143	0.127581
848.788	0.066051
858.433	0.024491
868.078	0.011691
877.722	0.009101
887.367	0.009701
897.012	0.013151
906.657	0.017131
916.301	0.017381
925.946	0.014191
935.591	0.010851
945.236	0.010461
954.88	0.011491
964.525	0.014361
974.17	0.024251
983.815	0.047631
993.46	0.053791
1003.1	0.031401
1012.75	0.014421
1022.39	0.011791
1032.04	0.015021
1041.68	0.018211
1051.33	0.028631
1060.97	0.115711
1070.62	0.221611
1080.26	0.102081
1089.91	0.020361
1099.55	0.013051
1109.2	0.010351
1118.84	0.006221
1128.49	0.008771
1138.13	0.041681
1147.78	0.091181
1157.42	0.022781
1167.07	0.005461
1176.71	0.013011
1186.36	0.042401
1196	0.033471
1205.64	0.008521
1215.29	0.010211
1224.93	0.018341
1234.58	0.012431
1244.22	0.007461
1253.87	0.008891
1263.51	0.011431
1273.16	0.012991
1282.8	0.014841
1292.45	0.018971
1302.09	0.014111
1311.74	0.006881
1321.38	0.005811
1331.03	0.004251
1340.67	0.003381
1350.32	0.003281
1359.96	0.004691
1369.61	0.011321
1379.25	0.022091
1388.9	0.050191
1398.54	0.087541
1408.18	0.041341
1417.83	0.008761
1427.47	0.007021
1437.12	0.008861
1446.76	0.011731
1456.41	0.018411
1466.05	0.036751
1475.7	0.090171
1485.34	0.149491
1494.99	0.153511
1504.63	0.152041
1514.28	0.376791
1523.92	0.527081
1533.57	0.203981
1543.21	0.047281
1552.86	0.029961
1562.5	0.023261
1572.15	0.017171
1581.79	0.013931
1591.44	0.014081
1601.08	0.023571
1610.73	0.046761
1620.37	0.056841
1630.01	0.033601
1639.66	0.027451
1649.3	0.018601
1658.95	0.009931
1668.59	0.008931
1678.24	0.007981
1687.88	0.005441
1697.53	0.005371
1707.17	0.005641
1716.82	0.007341
1726.46	0.006481
1736.11	0.004261
1745.75	0.004211
1755.4	0.004271
1765.04	0.004741
1774.69	0.004871
1784.33	0.004881
1793.98	0.004851
1803.62	0.005281
1813.27	0.006121
1822.91	0.007001
1832.55	0.006821
1842.2	0.005961
1851.84	0.005961
1861.49	0.006771
1871.13	0.008451
1880.78	0.010681
1890.42	0.013581
1900.07	0.018261
1909.71	0.025961
1919.36	0.037241
1929	0.053271
1938.65	0.074651
1948.29	0.102741
1957.94	0.141721
1967.58	0.196651
1977.23	0.259081
1986.87	0.314451
1996.52	0.369371
2006.16	0.441171
2015.81	0.599031
2025.45	0.854721
2035.1	0.744091
2044.74	0.434211
2054.38	0.280961
2064.03	0.246471
2073.67	0.285851
2083.32	0.365321
2092.96	0.375731
2102.61	0.293471
2112.25	0.190561
2121.9	0.126401
2131.54	0.102861
2141.19	0.096081
2150.83	0.085201
2160.48	0.065501
2170.12	0.048291
2179.77	0.039421
2189.41	0.028421
2199.06	0.018691
2208.7	0.014591
2218.35	0.012321
2227.99	0.009351
2237.64	0.007581
2247.28	0.006911
2256.92	0.006721
2266.57	0.007231
2276.21	0.008221
2285.86	0.008301
2295.5	0.006471
2305.15	0.005241
2314.79	0.005181
2324.44	0.006031
2334.08	0.006671
2343.73	0.006451
2353.37	0.006091
2363.02	0.006221
2372.66	0.007341
2382.31	0.008171
2391.95	0.007191
2401.6	0.005871
2411.24	0.005451
2420.89	0.005061
2430.53	0.005431
2440.18	0.005971
2449.82	0.005301
2459.47	0.004861
2469.11	0.005941
2478.75	0.007071
2488.4	0.006871
2498.04	0.005621
2507.69	0.005891
2517.33	0.007021
2526.98	0.009071
2536.62	0.011361
2546.27	0.011281
2555.91	0.008661
2565.56	0.006351
2575.2	0.005771
2584.85	0.006471
2594.49	0.006351
2604.14	0.005361
2613.78	0.005091
2623.43	0.005361
2633.07	0.006081
2642.72	0.007131
2652.36	0.008491
2662.01	0.009651
2671.65	0.009491
2681.29	0.008611
2690.94	0.008951
2700.58	0.009591
2710.23	0.007851
2719.87	0.005771
2729.52	0.004091
2739.16	0.003401
2748.81	0.002891
2758.45	0.002741
2768.1	0.002831
2777.74	0.002941
2787.39	0.002821
2797.03	0.003001
2806.68	0.002901
2816.32	0.002931
2825.97	0.002851
2835.61	0.003071
2845.26	0.003311
2854.9	0.003681
2864.55	0.004291
2874.19	0.004151
2883.84	0.004151
2893.48	0.003781
2903.12	0.004001
2912.77	0.004701
2922.41	0.005001
2932.06	0.004711
2941.7	0.003501
2951.35	0.002831
2960.99	0.002571
2970.64	0.002321
2980.28	0.002461
2989.93	0.002391
2999.57	0.002611
3009.22	0.002461
3018.86	0.002551
3028.51	0.002361
3038.15	0.002011
3047.8	0.001741
3057.44	0.0015089
3067.09	0.0014237
3076.73	0.001871
3086.38	0.003321
3096.02	0.004921
3105.67	0.003071
3115.31	0.0012902
3124.95	0.0010638
3134.6	0.0010038
3144.24	0.0010289
3153.89	0.0011048
3163.53	0.0011391
3173.18	0.0007121
3182.82	0.000455
3192.47	0.000315
3202.11	0.000269
3211.76	0.000222
3221.4	0.000326
3231.05	0.00013
3240.69	0.000314
3250.34	0.000343
3259.98	0.000447
3269.63	0.000347
3279.27	0.000542
3288.92	0.000309
3298.56	0.000199
3308.21	0.000316
3317.85	0.000423
3327.49	0.000559
3337.14	0.000457
3346.78	0.000341
3356.43	0.000313
3366.07	0.000399
3375.72	0.000414
3385.36	0.000316
3395.01	0.000514
3404.65	0.000318
3414.3	0.000411
3423.94	0.000335
3433.59	0.000583
3443.23	0.000412
3452.88	0.000598
3462.52	0.00072919
3472.17	0.00047
3481.81	0.000481
3491.46	0.000622
3501.1	0.00079304
3510.75	0.000515
3520.39	0.000484
3530.04	0.000598
3539.68	0.00072355
3549.32	0.000601
3558.97	0.0006687
3568.61	0.000601
3578.26	0.000363
3587.9	0.000618
3597.55	0.00072186
3607.19	0.000451
3616.84	0.00062
3626.48	0.000415
3636.13	0.000561
3645.77	0.0006673
3655.42	0.000662
3665.06	0.000712
3674.71	0.000406
3684.35	0.00074918
3694	0.0006
3703.64	0.000574
3713.29	0.0006323
3722.93	0.000561
3732.58	0.0007155
3742.22	0.000622
3751.86	0.00081085
3761.51	0.0008803
3771.15	0.00079871
3780.8	0.0009107
3790.44	0.0008501
3800.09	0.000735993
3809.73	0.00081157
3819.38	0.0010542
3829.02	0.0009564
3838.67	0.0009451
3848.31	0.0011781
3857.96	0.0011008
3867.6	0.0011995
3877.25	0.0011936
3886.89	0.001186
3896.54	0.0015395
3906.18	0.001557
3915.83	0.001791
3925.47	0.001901
3935.12	0.002251
3944.76	0.002191
3954.41	0.002291
3964.05	0.002591
3973.69	0.002701
3983.34	0.002511
3992.98	0.002651
