Infrared Spectrum: BIS(P-CHLOROBENZYL) SULFONE
Formula: C14 H12 Cl2 O2 S
CAS: 84355-05-5
State: SOLID (MINERAL OIL MULL)
Class: COBLENTZ
Instrument: Not specified, most likely a prism, grating, or hybrid spectrometer.
Sampling: TRANSMISSION
Resolution: 4
Origin: DOW CHEMICAL COMPANY
MICROMETERS	TRANSMITTANCE
2.04	0.473
2.08021	0.476
2.12042	0.485
2.16063	0.495
2.20085	0.503
2.24106	0.504
2.28127	0.506
2.32148	0.513
2.36169	0.523
2.4019	0.528
2.44212	0.541
2.48233	0.558
2.52254	0.568
2.56275	0.571
2.60296	0.583
2.64317	0.591
2.68339	0.594
2.7236	0.598
2.76381	0.601
2.80402	0.609
2.84423	0.616
2.88444	0.616
2.92465	0.617
2.96487	0.622
3.00508	0.634
3.04529	0.636
3.0855	0.636
3.12571	0.629
3.16592	0.622
3.20614	0.581
3.24635	0.569
3.28656	0.556
3.32677	0.476
3.36698	0.184
3.40719	0.051
3.44741	0.152
3.48762	0.23
3.52783	0.652
3.56804	0.717
3.60825	0.745
3.64846	0.744
3.68867	0.742
3.72889	0.747
3.7691	0.754
3.80931	0.759
3.84952	0.765
3.88973	0.777
3.92994	0.785
3.97016	0.795
4.01037	0.799
4.05058	0.8
4.09079	0.802
4.131	0.802
4.17121	0.807
4.21143	0.808
4.25164	0.812
4.29185	0.82
4.33206	0.82
4.37227	0.82
4.41248	0.823
4.45269	0.828
4.49291	0.835
4.53312	0.838
4.57333	0.84
4.61354	0.845
4.65375	0.847
4.69396	0.852
4.73418	0.857
4.77439	0.857
4.8146	0.848
4.85481	0.84
4.89502	0.863
4.93523	0.867
4.97545	0.875
5.01566	0.88
5.05587	0.88
5.09608	0.88
5.13629	0.872
5.1765	0.842
5.21672	0.832
5.25693	0.835
5.29714	0.855
5.33735	0.887
5.37756	0.89
5.41777	0.893
5.45798	0.898
5.4982	0.9
5.53841	0.9
5.57862	0.898
5.61883	0.895
5.65904	0.895
5.69925	0.898
5.73947	0.903
5.77968	0.908
5.81989	0.91
5.8601	0.91
5.90031	0.905
5.94052	0.89
5.98074	0.888
6.02095	0.887
6.06116	0.887
6.10137	0.893
6.14158	0.91
6.18179	0.92
6.222	0.875
6.26222	0.837
6.30243	0.911
6.34264	0.915
6.38285	0.916
6.42306	0.92
6.46327	0.923
6.50349	0.925
6.5437	0.921
6.58391	0.913
6.62412	0.875
6.66433	0.735
6.70454	0.451
6.74476	0.611
6.78497	0.509
6.82518	0.398
6.86539	0.431
6.9056	0.599
6.94581	0.7
6.98602	0.813
7.02624	0.77
7.06645	0.541
7.10666	0.561
7.14687	0.767
7.18708	0.79
7.22729	0.672
7.26751	0.612
7.30772	0.725
7.34793	0.813
7.38814	0.845
7.42835	0.857
7.46856	0.88
7.50878	0.892
7.54899	0.887
7.5892	0.85
7.62941	0.878
7.66962	0.888
7.70983	0.905
7.75004	0.888
7.79026	0.888
7.83047	0.915
7.87068	0.926
7.91089	0.928
7.9511	0.92
7.99131	0.91
8.03153	0.9
8.07174	0.915
8.11195	0.928
8.15216	0.933
8.19237	0.935
8.23258	0.938
8.2728	0.935
8.31301	0.945
8.35322	0.946
8.39343	0.923
8.43364	0.915
8.47385	0.918
8.51406	0.925
8.55428	0.923
8.59449	0.911
8.6347	0.898
8.67491	0.906
8.71512	0.923
8.75533	0.926
8.79555	0.93
8.83576	0.93
8.87597	0.926
8.91618	0.918
8.95639	0.9
8.9966	0.853
9.03682	0.705
9.07703	0.461
9.11724	0.401
9.15745	0.458
9.19766	0.533
9.23787	0.558
9.27808	0.641
9.3183	0.744
9.35851	0.79
9.39872	0.789
9.43893	0.735
9.47914	0.576
9.51935	0.5
9.55957	0.338
9.59978	0.176
9.63999	0.112
9.6802	0.209
9.72041	0.362
9.76062	0.48
9.80084	0.568
9.84105	0.528
9.88126	0.471
9.92147	0.734
9.96168	0.828
10.0019	0.862
10.0421	0.885
10.0823	0.893
10.1225	0.9
10.1627	0.903
10.203	0.901
10.2432	0.892
10.2834	0.877
10.3236	0.892
10.3638	0.91
10.404	0.897
10.4442	0.85
10.4844	0.83
10.5246	0.883
10.5649	0.918
10.6051	0.92
10.6453	0.903
10.6855	0.921
10.7257	0.936
10.7659	0.943
10.8061	0.943
10.8463	0.94
10.8865	0.945
10.9268	0.948
10.967	0.95
11.0072	0.95
11.0474	0.946
11.0876	0.92
11.1278	0.877
11.168	0.815
11.2082	0.755
11.2485	0.765
11.2887	0.853
11.3289	0.91
11.3691	0.938
11.4093	0.941
11.4495	0.94
11.4897	0.925
11.5299	0.895
11.5701	0.833
11.6104	0.777
11.6506	0.76
11.6908	0.679
11.731	0.493
11.7712	0.348
11.8114	0.448
11.8516	0.684
11.8918	0.686
11.932	0.569
11.9723	0.48
12.0125	0.463
12.0527	0.534
12.0929	0.569
12.1331	0.546
12.1733	0.48
12.2135	0.405
12.2537	0.416
12.294	0.523
12.3342	0.637
12.3744	0.719
12.4146	0.742
12.4548	0.774
12.495	0.828
12.5352	0.87
12.5754	0.895
12.6156	0.906
12.6559	0.911
12.6961	0.916
12.7363	0.92
12.7765	0.926
12.8167	0.928
12.8569	0.928
12.8971	0.926
12.9373	0.925
12.9776	0.921
13.0178	0.92
13.058	0.916
13.0982	0.913
13.1384	0.911
13.1786	0.906
13.2188	0.903
13.259	0.898
13.2992	0.89
13.3395	0.885
13.3797	0.877
13.4199	0.865
13.4601	0.842
13.5003	0.802
13.5405	0.74
13.5807	0.647
13.6209	0.621
13.6611	0.691
13.7014	0.775
13.7416	0.8
13.7818	0.803
13.822	0.802
13.8622	0.792
13.9024	0.767
13.9426	0.755
13.9828	0.769
14.0231	0.802
14.0633	0.812
14.1035	0.81
14.1437	0.808
14.1839	0.805
14.2241	0.799
14.2643	0.79
14.3045	0.787
14.3447	0.78
14.385	0.774
14.4252	0.765
14.4654	0.755
14.5056	0.747
14.5458	0.735
14.586	0.72
14.6262	0.702
14.6664	0.674
14.7066	0.642
14.7469	0.616
14.7871	0.591
14.8273	0.573
14.8675	0.566
14.9077	0.561
14.9479	0.561
14.9881	0.566
15.0283	0.573
15.0686	0.578
15.1088	0.579
15.149	0.579
15.1892	0.581
15.2294	0.581
15.2696	0.579
15.3098	0.578
15.35	0.574
15.3902	0.569
15.4305	0.563
15.4707	0.554
15.5109	0.551
15.5511	0.541
15.5913	0.536
15.6315	0.528
15.6717	0.516
15.7119	0.506
15.7521	0.501
15.7924	0.491
15.8326	0.483
15.8728	0.475
15.913	0.47
