Infrared Spectrum: VANILLIC ACID, HEPTYL ESTER
Formula: C15 H22 O4
CAS: 84375-72-4
State: SOLUTION (10% CCl4 FOR 3800-1330, 10% CS2 FOR 1330-400 CM^-^1) VS SOLVENT
Class: COBLENTZ III
Instrument: DOW KBr FOREPRISM-GRATING
Instrument parameters: BLAZED AT 3.5, 12.0, 20.0 MICRON AND CHANGED AT 5.0, 7.5, 14.9 MICRON
Sampling: TRANSMISSION
Path length: 0.011 CM, 0.011 CM
Resolution: 2
Origin: DOW CHEMICAL COMPANY
1/CM	TRANSMITTANCE
383	0.7558
392	0.7567
401	0.7575
410	0.7565
419	0.7417
428	0.6961
437	0.6077
446	0.4659
455	0.4593
464	0.4023
473	0.4235
482	0.5398
491	0.656
500	0.7384
509	0.7661
518	0.7736
527	0.778
536	0.7526
545	0.7682
554	0.7618
563	0.6715
572	0.7148
581	0.7668
590	0.7957
599	0.8078
608	0.8108
617	0.8107
626	0.7968
635	0.6367
644	0.8075
653	0.8165
662	0.8687
671	0.8858
680	0.9158
689	0.939
698	0.9523
707	0.9399
716	0.8778
725	0.5504
734	0.8636
743	0.8511
752	0.7675
761	0.3897
770	0.112
779	0.3191
788	0.5047
797	0.7618
806	0.8056
815	0.8477
824	0.8423
833	0.556
842	0.8682
851	0.8725
860	0.8391
869	0.7778
878	0.4935
887	0.5806
896	0.7672
905	0.7647
914	0.7443
923	0.7389
932	0.6621
941	0.5994
950	0.6424
959	0.6138
968	0.5983
977	0.5477
986	0.5786
995	0.6362
1004	0.5978
1013	0.5899
1022	0.519
1031	0.0966
1040	0.3472
1049	0.6774
1058	0.7125
1067	0.6962
1076	0.6676
1085	0.5062
1094	0.0981
1103	0.0463
1112	0.1623
1121	0.1934
1130	0.5365
1139	0.6275
1148	0.5955
1157	0.5412
1166	0.3932
1175	0.2368
1184	0.1277
1193	0.0373
1202	0.008
1211	0.0031
1220	0.0022
1229	0.0905
1238	0.4071
1247	0.3659
1256	0.1737
1265	0.1445
1274	0.0001
1283	0.0001
1292	0.0041
1301	0.1
1310	0.2972
1319	0.4349
1328	0.5871
1337	0.6281
1346	0.6242
1355	0.5742
1364	0.537
1373	0.3134
1382	0.2537
1391	0.3439
1400	0.5395
1409	0.6282
1418	0.5612
1427	0.2057
1436	0.2659
1445	0.4659
1454	0.179
1463	0.1034
1472	0.267
1481	0.6308
1490	0.661
1499	0.5734
1508	0.1595
1517	0.0612
1526	0.5064
1535	0.7601
1544	0.8033
1553	0.8018
1562	0.7935
1571	0.7728
1580	0.7147
1589	0.5187
1598	0.1615
1607	0.2191
1616	0.3094
1625	0.623
1634	0.7328
1643	0.7396
1652	0.7346
1661	0.6921
1670	0.6438
1679	0.5709
1688	0.4385
1697	0.16
1706	0.0062
1715	0.0104
1724	0.2295
1733	0.5724
1742	0.6919
1751	0.7378
1760	0.7543
1769	0.7801
1778	0.8039
1787	0.8246
1796	0.8395
1805	0.8464
1814	0.8517
1823	0.8562
1832	0.859
1841	0.86
1850	0.8605
1859	0.861
1868	0.8597
1877	0.847
1886	0.8345
1895	0.8441
1904	0.8596
1913	0.8655
1922	0.8649
1931	0.8644
1940	0.8646
1949	0.8648
1958	0.8657
1967	0.8673
1976	0.8643
1985	0.8575
1994	0.8584
2003	0.8507
2012	0.8486
2021	0.8463
2030	0.8443
2039	0.839
2048	0.8316
2057	0.8264
2066	0.8283
2075	0.8399
2084	0.8501
2093	0.8523
2102	0.8521
2111	0.8524
2120	0.853
2129	0.8534
2138	0.853
2147	0.8546
2156	0.8593
2165	0.8613
2174	0.8624
2183	0.8625
2192	0.8628
2201	0.8641
2210	0.8646
2219	0.8643
2228	0.8641
2237	0.864
2246	0.8639
2255	0.8652
2264	0.8664
2273	0.863
2282	0.8564
2291	0.8528
2300	0.8541
2309	0.8592
2318	0.8587
2327	0.8582
2336	0.8575
2345	0.8568
2354	0.8568
2363	0.8568
2372	0.8568
2381	0.8564
2390	0.8559
2399	0.8554
2408	0.8551
2417	0.8548
2426	0.8564
2435	0.8587
2444	0.8571
2453	0.8548
2462	0.8518
2471	0.8485
2480	0.8435
2489	0.8391
2498	0.8388
2507	0.8453
2516	0.8459
2525	0.8433
2534	0.8406
2543	0.8404
2552	0.8417
2561	0.8432
2570	0.8449
2579	0.847
2588	0.8493
2597	0.8491
2606	0.8482
2615	0.8456
2624	0.8396
2633	0.8317
2642	0.8228
2651	0.8147
2660	0.8158
2669	0.8257
2678	0.8349
2687	0.838
2696	0.8368
2705	0.8348
2714	0.8274
2723	0.8217
2732	0.8209
2741	0.8206
2750	0.8191
2759	0.8178
2768	0.8161
2777	0.8097
2786	0.7996
2795	0.785
2804	0.7664
2813	0.738
2822	0.6889
2831	0.6283
2840	0.441
2849	0.2462
2858	0.2345
2867	0.3268
2876	0.4666
2885	0.4086
2894	0.3218
2903	0.2349
2912	0.148
2921	0.0666
2930	0.0649
2939	0.1101
2948	0.1344
2957	0.0909
2966	0.1958
2975	0.3978
2984	0.5601
2993	0.6357
3002	0.6269
3011	0.637
3020	0.7405
3029	0.7903
3038	0.7995
3047	0.7976
3056	0.7953
3065	0.7934
3074	0.7615
3083	0.7768
3092	0.8124
3101	0.8284
3110	0.8284
3119	0.8285
3128	0.8286
3137	0.8286
3146	0.8275
3155	0.8264
3164	0.8251
3173	0.8228
3182	0.8175
3191	0.8124
3200	0.8085
3209	0.8051
3218	0.8046
3227	0.8048
3236	0.804
3245	0.8012
3254	0.7975
3263	0.791
3272	0.7836
3281	0.7761
3290	0.7685
3299	0.7607
3308	0.7515
3317	0.7419
3326	0.7318
3335	0.7215
3344	0.7088
3353	0.6956
3362	0.6806
3371	0.6656
3380	0.6515
3389	0.6407
3398	0.6352
3407	0.6374
3416	0.6448
3425	0.6546
3434	0.6667
3443	0.6785
3452	0.6907
3461	0.7037
3470	0.7136
3479	0.719
3488	0.7201
3497	0.713
3506	0.6865
3515	0.6486
3524	0.435
3533	0.2171
3542	0.1803
3551	0.251
3560	0.6007
3569	0.7521
3578	0.8115
3587	0.8405
3596	0.8463
3605	0.8485
3614	0.8675
3623	0.8713
3632	0.8725
3641	0.8724
3650	0.8723
3659	0.8721
3668	0.8721
3677	0.8721
3686	0.8721
3695	0.8753
3704	0.8814
3713	0.8825
3722	0.8825
3731	0.8821
3740	0.8818
3749	0.8813
3758	0.8808
3767	0.88
3776	0.8795
3785	0.8797
3794	0.88
