Infrared Spectrum: 4-Diethylaminophenyl isothiocyanate
Formula: C11 H14 N2 S
CAS: 84381-54-4
State: gas
Origin: EPA-IR VAPOR PHASE LIBRARY
1/CM	ABSORBANCE
549.8	0.022899
559.445	0.018669
569.09	0.013779
578.734	0.010719
588.379	0.008379
598.024	0.008359
607.669	0.008009
617.313	0.005429
626.958	0.003769
636.603	0.003729
646.248	0.003619
655.893	0.003849
665.537	0.003819
675.182	0.003819
684.827	0.003599
694.472	0.003279
704.116	0.003329
713.761	0.003859
723.406	0.005859
733.051	0.017839
742.695	0.021549
752.34	0.007229
761.985	0.004499
771.63	0.005109
781.275	0.008269
790.919	0.014269
800.564	0.021949
810.209	0.040589
819.854	0.047129
829.498	0.026559
839.143	0.012769
848.788	0.008219
858.433	0.005479
868.078	0.004209
877.722	0.004609
887.367	0.006359
897.012	0.009819
906.657	0.011529
916.301	0.014109
925.946	0.021349
935.591	0.030889
945.236	0.024389
954.88	0.013779
964.525	0.008659
974.17	0.006609
983.815	0.005809
993.46	0.006679
1003.1	0.011699
1012.75	0.016799
1022.39	0.013299
1032.04	0.009779
1041.68	0.009769
1051.33	0.011529
1060.97	0.015699
1070.62	0.022849
1080.26	0.021809
1089.91	0.018589
1099.55	0.018479
1109.2	0.016629
1118.84	0.015609
1128.49	0.018909
1138.13	0.035459
1147.78	0.061049
1157.42	0.041149
1167.07	0.026119
1176.71	0.041609
1186.36	0.052129
1196	0.037639
1205.64	0.024129
1215.29	0.018309
1224.93	0.020459
1234.58	0.030339
1244.22	0.055289
1253.87	0.105839
1263.51	0.132099
1273.16	0.072279
1282.8	0.033209
1292.45	0.023259
1302.09	0.021849
1311.74	0.023499
1321.38	0.027029
1331.03	0.035729
1340.67	0.052799
1350.32	0.072959
1359.96	0.076469
1369.61	0.057169
1379.25	0.071189
1388.9	0.059069
1398.54	0.037269
1408.18	0.022619
1417.83	0.017539
1427.47	0.016979
1437.12	0.015839
1446.76	0.017399
1456.41	0.022079
1466.05	0.025679
1475.7	0.028919
1485.34	0.037189
1494.99	0.092539
1504.63	0.283439
1514.28	0.265309
1523.92	0.090739
1533.57	0.044149
1543.21	0.031009
1552.86	0.024309
1562.5	0.021919
1572.15	0.021009
1581.79	0.023399
1591.44	0.033209
1601.08	0.054079
1610.73	0.052829
1620.37	0.026249
1630.01	0.016069
1639.66	0.011529
1649.3	0.008279
1658.95	0.006529
1668.59	0.005749
1678.24	0.005059
1687.88	0.004419
1697.53	0.003959
1707.17	0.003799
1716.82	0.003839
1726.46	0.004159
1736.11	0.004289
1745.75	0.004519
1755.4	0.004499
1765.04	0.004199
1774.69	0.004309
1784.33	0.004459
1793.98	0.004619
1803.62	0.004669
1813.27	0.004729
1822.91	0.005009
1832.55	0.005859
1842.2	0.007239
1851.84	0.009559
1861.49	0.011159
1871.13	0.010769
1880.78	0.010139
1890.42	0.010189
1900.07	0.010809
1909.71	0.012259
1919.36	0.014799
1929	0.018769
1938.65	0.024909
1948.29	0.033129
1957.94	0.044169
1967.58	0.059789
1977.23	0.081339
1986.87	0.108469
1996.52	0.141829
2006.16	0.184819
2015.81	0.238849
2025.45	0.299789
2035.1	0.354239
2044.74	0.397199
2054.38	0.423599
2064.03	0.384979
2073.67	0.283149
2083.32	0.245719
2092.96	0.291649
2102.61	0.334989
2112.25	0.281349
2121.9	0.189579
2131.54	0.133199
2141.19	0.115509
2150.83	0.110349
2160.48	0.090469
2170.12	0.065029
2179.77	0.053099
2189.41	0.049189
2199.06	0.039639
2208.7	0.027789
2218.35	0.019019
2227.99	0.013409
2237.64	0.010339
2247.28	0.008479
2256.92	0.007079
2266.57	0.005869
2276.21	0.004449
2285.86	0.003779
2295.5	0.003579
2305.15	0.003459
2314.79	0.003299
2324.44	0.003349
2334.08	0.003329
2343.73	0.003489
2353.37	0.003559
2363.02	0.003609
2372.66	0.003689
2382.31	0.003909
2391.95	0.004109
2401.6	0.004059
2411.24	0.003979
2420.89	0.003999
2430.53	0.004039
2440.18	0.004009
2449.82	0.003709
2459.47	0.003539
2469.11	0.003469
2478.75	0.003889
2488.4	0.004399
2498.04	0.005049
2507.69	0.005189
2517.33	0.005189
2526.98	0.005409
2536.62	0.005609
2546.27	0.005589
2555.91	0.005679
2565.56	0.005939
2575.2	0.006239
2584.85	0.005869
2594.49	0.005309
2604.14	0.005189
2613.78	0.005369
2623.43	0.005469
2633.07	0.005619
2642.72	0.005809
2652.36	0.006249
2662.01	0.006779
2671.65	0.007179
2681.29	0.007059
2690.94	0.006469
2700.58	0.005959
2710.23	0.005629
2719.87	0.005359
2729.52	0.005639
2739.16	0.005799
2748.81	0.005849
2758.45	0.006309
2768.1	0.006889
2777.74	0.007789
2787.39	0.008999
2797.03	0.010649
2806.68	0.013229
2816.32	0.016899
2825.97	0.020449
2835.61	0.022329
2845.26	0.023179
2854.9	0.023999
2864.55	0.025749
2874.19	0.031699
2883.84	0.038599
2893.48	0.035849
2903.12	0.032699
2912.77	0.032259
2922.41	0.035079
2932.06	0.047249
2941.7	0.061659
2951.35	0.050649
2960.99	0.046779
2970.64	0.069289
2980.28	0.099709
2989.93	0.073079
2999.57	0.032489
3009.22	0.018939
3018.86	0.013699
3028.51	0.011889
3038.15	0.012999
3047.8	0.017399
3057.44	0.015479
3067.09	0.009219
3076.73	0.009229
3086.38	0.010549
3096.02	0.011199
3105.67	0.010209
3115.31	0.007519
3124.95	0.005449
3134.6	0.004069
3144.24	0.002849
3153.89	0.002229
3163.53	0.001719
3173.18	0.001449
3182.82	0.0011188
3192.47	0.0010488
3202.11	0.000936
3211.76	0.0010322
3221.4	0.0007267
3231.05	0.0005527
3240.69	0.00052
3250.34	0.00040094
3259.98	0.0003341
3269.63	0.0005757
3279.27	8.8e-05
3288.92	0.0003842
3298.56	0.0003806
3308.21	0.000294
3317.85	0.0003187
3327.49	0.000217
3337.14	0.000281
3346.78	0.0003896
3356.43	0.000134
3366.07	0.000144
3375.72	0.000248
3385.36	0.000239
3395.01	0.0003761
3404.65	0.000264
3414.3	0.000302
3423.94	0.000261
3433.59	0.000203
3443.23	0.000126
3452.88	0.000254
3462.52	0.000176
3472.17	0.000176
3481.81	0.000147
3491.46	0.000223
3501.1	0.000204
3510.75	0.000126
3520.39	7e-05
3530.04	0.00017
3539.68	0.000192
3549.32	0.000265
3558.97	0.000246
3568.61	0.000119
3578.26	0.000126
3587.9	0
3597.55	0.00013
3607.19	0.000228
3616.84	0.000181
3626.48	0.000146
3636.13	2.5e-05
3645.77	9.2e-05
3655.42	0.000264
3665.06	8.8e-05
3674.71	0.0003231
3684.35	0.0003641
3694	0.00041912
3703.64	0.0003363
3713.29	0.00038
3722.93	0.0003348
3732.58	0.00046518
3742.22	0.0005317
3751.86	0.0003382
3761.51	0.000294
3771.15	0.00045193
3780.8	0.00044878
3790.44	0.0003272
3800.09	0.0005133
3809.73	0.0005229
3819.38	0.0005461
3829.02	0.00044042
3838.67	0.0006808
3848.31	0.0006641
3857.96	0.0006459
3867.6	0.0006056
3877.25	0.0005665
3886.89	0.0006394
3896.54	0.0008247
3906.18	0.0007736
3915.83	0.0009679
3925.47	0.0010325
3935.12	0.0011743
3944.76	0.0013766
3954.41	0.0011994
3964.05	0.001489
3973.69	0.001579
3983.34	0.001759
3992.98	0.001919
