Infrared Spectrum: 2,8-DIOCTYL PHENOTHIAZINE
Formula: C28 H41 N S
CAS: 84460-70-8
State: SOLID (KBr PELLET)
Melting point: 167-169 C
Class: COBLENTZ
Instrument: Not specified, most likely a prism, grating, or hybrid spectrometer.
Sampling: TRANSMISSION
Resolution: 4
Origin: TENNESSEE EASTMAN COMPANY, RESEARCH LABORATORIES
MICROMETERS	TRANSMITTANCE
2.032	0.886
2.07073	0.888
2.10946	0.891
2.14818	0.893
2.18691	0.894
2.22564	0.896
2.26437	0.893
2.30309	0.876
2.34182	0.873
2.38055	0.878
2.41928	0.878
2.45801	0.88
2.49673	0.881
2.53546	0.883
2.57419	0.883
2.61292	0.884
2.65165	0.884
2.69037	0.889
2.7291	0.884
2.76783	0.837
2.80656	0.786
2.84528	0.75
2.88401	0.708
2.92274	0.669
2.96147	0.573
3.0002	0.573
3.03892	0.721
3.07765	0.779
3.11638	0.8
3.15511	0.821
3.19383	0.842
3.23256	0.862
3.27129	0.826
3.31002	0.76
3.34875	0.34
3.38747	0.029
3.4262	0.141
3.46493	0.176
3.50366	0.515
3.54239	0.742
3.58111	0.824
3.61984	0.867
3.65857	0.876
3.6973	0.868
3.73602	0.871
3.77475	0.889
3.81348	0.899
3.85221	0.917
3.89094	0.927
3.92966	0.928
3.96839	0.917
4.00712	0.91
4.04585	0.928
4.08457	0.933
4.1233	0.936
4.16203	0.941
4.20076	0.941
4.23949	0.941
4.27821	0.941
4.31694	0.938
4.35567	0.935
4.3944	0.944
4.43313	0.949
4.47185	0.954
4.51058	0.954
4.54931	0.954
4.58804	0.952
4.62676	0.948
4.66549	0.948
4.70422	0.951
4.74295	0.952
4.78168	0.956
4.8204	0.959
4.85913	0.957
4.89786	0.956
4.93659	0.959
4.97531	0.957
5.01404	0.961
5.05277	0.961
5.0915	0.961
5.13023	0.961
5.16895	0.962
5.20768	0.962
5.24641	0.962
5.28514	0.952
5.32387	0.925
5.36259	0.915
5.40132	0.943
5.44005	0.951
5.47878	0.954
5.5175	0.951
5.55623	0.944
5.59496	0.946
5.63369	0.948
5.67242	0.923
5.71114	0.893
5.74987	0.912
5.7886	0.931
5.82733	0.928
5.86605	0.927
5.90478	0.912
5.94351	0.92
5.98224	0.91
6.02097	0.909
6.05969	0.883
6.09842	0.854
6.13715	0.836
6.17588	0.829
6.21461	0.682
6.25333	0.823
6.29206	0.742
6.33079	0.807
6.36952	0.852
6.40824	0.867
6.44697	0.868
6.4857	0.858
6.52443	0.805
6.56316	0.643
6.60188	0.434
6.64061	0.27
6.67934	0.071
6.71807	0.081
6.75679	0.069
6.79552	0.042
6.83425	0.139
6.87298	0.361
6.91171	0.497
6.95043	0.651
6.98916	0.726
7.02789	0.769
7.06662	0.761
7.10535	0.466
7.14407	0.325
7.1828	0.461
7.22153	0.598
7.26026	0.636
7.29898	0.562
7.33771	0.288
7.37644	0.646
7.41517	0.777
7.4539	0.703
7.49262	0.758
7.53135	0.538
7.57008	0.598
7.60881	0.713
7.64753	0.604
7.68626	0.244
7.72499	0.115
7.76372	0.293
7.80245	0.512
7.84117	0.632
7.8799	0.529
7.91863	0.505
7.95736	0.552
7.99609	0.338
8.03481	0.332
8.07354	0.562
8.11227	0.74
8.151	0.8
8.18972	0.821
8.22845	0.802
8.26718	0.734
8.30591	0.784
8.34464	0.824
8.38336	0.831
8.42209	0.818
8.46082	0.816
8.49955	0.803
8.53827	0.776
8.577	0.727
8.61573	0.683
8.65446	0.708
8.69319	0.768
8.73191	0.818
8.77064	0.833
8.80937	0.834
8.8481	0.815
8.88683	0.797
8.92555	0.807
8.96428	0.813
9.00301	0.735
9.04174	0.604
9.08046	0.753
9.11919	0.813
9.15792	0.833
9.19665	0.836
9.23538	0.829
9.2741	0.774
9.31283	0.776
9.35156	0.811
9.39029	0.816
9.42901	0.821
9.46774	0.823
9.50647	0.821
9.5452	0.818
9.58393	0.81
9.62265	0.794
9.66138	0.786
9.70011	0.781
9.73884	0.777
9.77757	0.779
9.81629	0.781
9.85502	0.789
9.89375	0.799
9.93248	0.811
9.9712	0.841
10.0099	0.855
10.0487	0.858
10.0874	0.86
10.1261	0.86
10.1648	0.842
10.2036	0.818
10.2423	0.813
10.281	0.831
10.3198	0.862
10.3585	0.883
10.3972	0.901
10.4359	0.914
10.4747	0.912
10.5134	0.902
10.5521	0.883
10.5908	0.858
10.6296	0.831
10.6683	0.824
10.707	0.85
10.7458	0.862
10.7845	0.862
10.8232	0.815
10.8619	0.799
10.9007	0.842
10.9394	0.883
10.9781	0.92
11.0169	0.931
11.0556	0.933
11.0943	0.933
11.133	0.931
11.1718	0.92
11.2105	0.922
11.2492	0.901
11.288	0.813
11.3267	0.692
11.3654	0.654
11.4041	0.777
11.4429	0.862
11.4816	0.902
11.5203	0.918
11.559	0.923
11.5978	0.933
11.6365	0.938
11.6752	0.943
11.714	0.946
11.7527	0.941
11.7914	0.927
11.8301	0.893
11.8689	0.834
11.9076	0.709
11.9463	0.578
11.9851	0.499
12.0238	0.387
12.0625	0.226
12.1012	0.178
12.14	0.231
12.1787	0.23
12.2174	0.197
12.2561	0.314
12.2949	0.56
12.3336	0.73
12.3723	0.81
12.4111	0.862
12.4498	0.893
12.4885	0.914
12.5272	0.92
12.566	0.927
12.6047	0.933
12.6434	0.936
12.6822	0.936
12.7209	0.936
12.7596	0.927
12.7983	0.918
12.8371	0.912
12.8758	0.894
12.9145	0.863
12.9532	0.824
12.992	0.787
13.0307	0.758
13.0694	0.752
13.1082	0.805
13.1469	0.854
13.1856	0.891
13.2243	0.904
13.2631	0.907
13.3018	0.897
13.3405	0.863
13.3793	0.821
13.418	0.784
13.4567	0.774
13.4954	0.816
13.5342	0.855
13.5729	0.875
13.6116	0.876
13.6503	0.854
13.6891	0.784
13.7278	0.706
13.7665	0.683
13.8053	0.748
13.844	0.826
13.8827	0.871
13.9214	0.893
13.9602	0.897
13.9989	0.904
14.0376	0.905
14.0764	0.905
14.1151	0.905
14.1538	0.904
14.1925	0.901
14.2313	0.893
14.27	0.886
14.3087	0.873
14.3474	0.867
14.3862	0.854
14.4249	0.834
14.4636	0.81
14.5024	0.776
14.5411	0.734
14.5798	0.69
14.6185	0.67
14.6573	0.692
14.696	0.732
14.7347	0.773
14.7735	0.802
14.8122	0.808
14.8509	0.813
14.8896	0.813
14.9284	0.811
14.9671	0.811
15.0058	0.813
15.0445	0.816
15.0833	0.82
15.122	0.82
15.1607	0.82
15.1995	0.81
15.2382	0.805
15.2769	0.8
15.3156	0.794
15.3544	0.789
15.3931	0.781
15.4318	0.774
15.4706	0.769
15.5093	0.764
15.548	0.761
15.5867	0.758
15.6255	0.752
15.6642	0.745
15.7029	0.734
15.7417	0.729
15.7804	0.716
15.8191	0.709
15.8578	0.7
15.8966	0.679
15.9353	0.669
15.974	0.666
16.0127	0.774
