Infrared Spectrum: 3-Chloro-2,6-dibromo-4-methylaniline
Formula: C 7 H 6 Br 2 Cl N
CAS: 84483-22-7
State: gas
Origin: EPA-IR VAPOR PHASE LIBRARY
1/CM	ABSORBANCE
549.8	0.003882
559.445	0.002692
569.09	0.003452
578.735	0.003312
588.38	0.003762
598.025	0.003762
607.67	0.003622
617.315	0.004472
626.96	0.004952
636.605	0.005442
646.251	0.006332
655.896	0.007532
665.541	0.008972
675.186	0.010632
684.831	0.012142
694.476	0.012302
704.121	0.013302
713.766	0.012512
723.411	0.010202
733.056	0.010142
742.701	0.012612
752.346	0.024282
761.991	0.026012
771.636	0.017222
781.281	0.014342
790.926	0.012662
800.571	0.013292
810.216	0.017052
819.861	0.012682
829.507	0.006252
839.152	0.005622
848.797	0.005542
858.442	0.009802
868.087	0.012842
877.732	0.006022
887.377	0.004142
897.022	0.003462
906.667	0.003182
916.312	0.003232
925.957	0.003502
935.602	0.004152
945.247	0.004532
954.892	0.004472
964.537	0.004502
974.182	0.004982
983.827	0.005972
993.472	0.007692
1003.12	0.012702
1012.76	0.015272
1022.41	0.007842
1032.05	0.005662
1041.7	0.005512
1051.34	0.006602
1060.99	0.009962
1070.63	0.018522
1080.28	0.029992
1089.92	0.046852
1099.57	0.042872
1109.21	0.019392
1118.86	0.017372
1128.5	0.011952
1138.15	0.005072
1147.79	0.002482
1157.44	0.001782
1167.08	0.001632
1176.73	0.001592
1186.37	0.001972
1196.02	0.003052
1205.66	0.003522
1215.31	0.002842
1224.95	0.003152
1234.6	0.004332
1244.24	0.003442
1253.89	0.005782
1263.53	0.011872
1273.18	0.011682
1282.82	0.007702
1292.47	0.006992
1302.11	0.003442
1311.76	0.002652
1321.4	0.002992
1331.05	0.002182
1340.69	0.001802
1350.34	0.002492
1359.98	0.006012
1369.63	0.016442
1379.27	0.015982
1388.92	0.009302
1398.56	0.005082
1408.21	0.004292
1417.85	0.005472
1427.5	0.009072
1437.14	0.021082
1446.79	0.058352
1456.43	0.094382
1466.08	0.054592
1475.73	0.020032
1485.37	0.009102
1495.02	0.004762
1504.66	0.004112
1514.31	0.004782
1523.95	0.005982
1533.6	0.006402
1543.24	0.004992
1552.89	0.005022
1562.53	0.007322
1572.18	0.011632
1581.82	0.013992
1591.47	0.021432
1601.11	0.043152
1610.76	0.063582
1620.4	0.049492
1630.05	0.022322
1639.69	0.010262
1649.34	0.005972
1658.98	0.004422
1668.63	0.003362
1678.27	0.002812
1687.92	0.002582
1697.56	0.002792
1707.21	0.002792
1716.85	0.002982
1726.5	0.003392
1736.14	0.002222
1745.79	0.001552
1755.43	0.0014171
1765.08	0.0012737
1774.72	0.0011598
1784.37	0.0011311
1794.01	0.0010447
1803.66	0.0009395
1813.3	0.0008728
1822.95	0.0008566
1832.59	0.0008106
1842.24	0.0008455
1851.88	0.0008347
1861.53	0.0008085
1871.17	0.0008439
1880.82	0.0008886
1890.46	0.0010271
1900.11	0.0010573
1909.75	0.0010922
1919.4	0.0010315
1929.04	0.0009513
1938.69	0.0009028
1948.33	0.0009362
1957.98	0.0008509
1967.62	0.000835
1977.27	0.0008341
1986.91	0.0008687
1996.56	0.0007978
2006.2	0.0008505
2015.85	0.0008444
2025.49	0.0008934
2035.14	0.0009067
2044.78	0.000972
2054.43	0.0009081
2064.07	0.0009112
2073.72	0.0009673
2083.36	0.0009031
2093.01	0.0008427
2102.65	0.0008806
2112.3	0.0008261
2121.94	0.0008061
2131.59	0.0008534
2141.23	0.0008488
2150.88	0.0008752
2160.52	0.0008168
2170.17	0.0008442
2179.81	0.0008516
2189.46	0.000918
2199.1	0.0009616
2208.75	0.0009498
2218.39	0.0008603
2228.04	0.000915
2237.68	0.0009102
2247.33	0.0008621
2256.97	0.0007759
2266.62	0.0008238
2276.26	0.0008023
2285.91	0.0008017
2295.55	0.0008416
2305.2	0.0008839
2314.84	0.0009604
2324.49	0.0009201
2334.13	0.0009075
2343.78	0.0009215
2353.42	0.000953
2363.07	0.0008826
2372.72	0.0009752
2382.36	0.0010504
2392.01	0.0009637
2401.65	0.0009984
2411.3	0.0009459
2420.94	0.0008984
2430.59	0.0007623
2440.23	0.0008474
2449.88	0.0007299
2459.52	0.0008474
2469.17	0.0008774
2478.81	0.0007949
2488.46	0.0007939
2498.1	0.0007855
2507.75	0.0008079
2517.39	0.0008587
2527.04	0.001016
2536.68	0.001022
2546.33	0.0011413
2555.97	0.000977
2565.62	0.0010473
2575.26	0.0009754
2584.91	0.0009306
2594.55	0.0008293
2604.2	0.0008077
2613.84	0.0008759
2623.49	0.0010428
2633.13	0.0009511
2642.78	0.0008079
2652.42	0.0009557
2662.07	0.0008532
2671.71	0.0007617
2681.36	0.0008491
2691	0.0008356
2700.65	0.0007986
2710.29	0.000918
2719.94	0.0010484
2729.58	0.0010718
2739.23	0.0011671
2748.87	0.0012819
2758.52	0.0010581
2768.16	0.0010204
2777.81	0.000912
2787.45	0.0009909
2797.1	0.0010056
2806.74	0.001053
2816.39	0.0012763
2826.03	0.0012601
2835.68	0.0014418
2845.32	0.001762
2854.97	0.002292
2864.61	0.003472
2874.26	0.004412
2883.9	0.003712
2893.55	0.003482
2903.19	0.003592
2912.84	0.003682
2922.48	0.005442
2932.13	0.012092
2941.77	0.012482
2951.42	0.005712
2961.06	0.005682
2970.71	0.005802
2980.35	0.005962
2990	0.005852
2999.64	0.003302
3009.29	0.002222
3018.93	0.001872
3028.58	0.001772
3038.22	0.001792
3047.87	0.002002
3057.51	0.002382
3067.16	0.001992
3076.8	0.0013457
3086.45	0.0011053
3096.09	0.000916
3105.74	0.0008043
3115.38	0.0008315
3125.03	0.0008101
3134.67	0.0008346
3144.32	0.0007917
3153.96	0.000669
3163.61	0.0005812
3173.25	0.0006279
3182.9	0.000442
3192.54	0.0004249
3202.19	0.0004263
3211.83	0.00050546
3221.48	0.000175
3231.12	0.000264
3240.77	0.000182
3250.41	0.000211
3260.06	0.000213
3269.7	0.000201
3279.35	0.000323
3289	0.000123
3298.64	0.00015
3308.29	0.000202
3317.93	0.000251
3327.58	0.000225
3337.22	0.000256
3346.87	0.000284
3356.51	0.0004315
3366.16	0.0008786
3375.8	0.001972
3385.45	0.004782
3395.09	0.011302
3404.74	0.016782
3414.38	0.011232
3424.03	0.004262
3433.67	0.001822
3443.32	0.0014658
3452.96	0.001852
3462.61	0.003102
3472.25	0.004782
3481.9	0.008412
3491.54	0.015552
3501.19	0.023622
3510.83	0.018532
3520.48	0.008742
3530.12	0.003502
3539.77	0.001792
3549.41	0.0011088
3559.06	0.0007435
3568.7	0.0004486
3578.35	0.0003821
3587.99	0.00047096
3597.64	0.000312
3607.28	0.00027
3616.93	0.000217
3626.57	0.00013
3636.22	2.1e-05
3645.86	0.000192
3655.51	0.000348
3665.15	0.000243
3674.8	0.000353
3684.44	0
3694.09	0.000288
3703.73	0.000125
3713.38	0.000152
3723.02	0.00048587
3732.67	0.00017
3742.31	0.000309
3751.96	0.000402
3761.6	0.0004573
3771.25	0.000241
3780.89	0.000337
3790.54	0.00048272
3800.18	0.000123
3809.83	0.00054132
3819.47	0.00046861
3829.12	0.0006735
3838.76	0.00054516
3848.41	0.0007337
3858.05	0.0008458
3867.7	0.0008031
3877.34	0.0008204
3886.99	0.0006797
3896.63	0.00054236
3906.28	0.0006197
3915.92	0.0006471
3925.57	0.00053291
3935.21	0.0006436
3944.86	0.0005995
3954.5	0.0008121
3964.15	0.0006832
3973.79	0.0009239
3983.44	0.000605
3993.08	0.0006048
