Infrared Spectrum: 3-Heptadecanone
Formula: C 17 H 34 O
CAS: 84534-29-2
State: gas
Origin: EPA-IR VAPOR PHASE LIBRARY
1/CM	ABSORBANCE
549.8	0.00222
559.445	0.00113
569.09	0.00173
578.734	0.00257
588.379	0.00141
598.024	0.0009523
607.669	0.0006497
617.313	0.0009466
626.958	0.00203
636.603	0.00171
646.248	0.00107
655.893	0.0008057
665.537	0.0002486
675.182	0.00128
684.827	0.00193
694.472	0.00364
704.116	0.00559
713.761	0.00861
723.406	0.00952
733.051	0.00758
742.695	0.0066
752.34	0.00587
761.985	0.00525
771.63	0.005
781.275	0.00449
790.919	0.0048
800.564	0.00419
810.209	0.00459
819.854	0.00428
829.498	0.00407
839.143	0.00417
848.788	0.00388
858.433	0.00362
868.078	0.00416
877.722	0.00379
887.367	0.00447
897.012	0.00464
906.657	0.00417
916.301	0.00609
925.946	0.00652
935.591	0.00899
945.236	0.0106
954.88	0.01142
964.525	0.01138
974.17	0.00969
983.815	0.0082
993.46	0.00799
1003.1	0.00782
1012.75	0.01037
1022.39	0.0114
1032.04	0.01148
1041.68	0.01213
1051.33	0.01069
1060.97	0.00951
1070.62	0.00983
1080.26	0.01017
1089.91	0.01293
1099.55	0.01847
1109.2	0.02367
1118.84	0.02281
1128.49	0.02105
1138.13	0.01779
1147.78	0.01897
1157.42	0.01856
1167.07	0.01676
1176.71	0.01552
1186.36	0.01439
1196	0.01221
1205.64	0.01347
1215.29	0.00975
1224.93	0.00921
1234.58	0.01059
1244.22	0.01061
1253.87	0.0108
1263.51	0.01184
1273.16	0.01231
1282.8	0.01307
1292.45	0.01422
1302.09	0.01676
1311.74	0.01877
1321.38	0.02105
1331.03	0.02567
1340.67	0.03411
1350.32	0.04143
1359.96	0.03842
1369.61	0.02959
1379.25	0.02368
1388.9	0.01906
1398.54	0.01566
1408.18	0.01706
1417.83	0.0208
1427.47	0.02263
1437.12	0.02712
1446.76	0.0375
1456.41	0.05161
1466.05	0.05177
1475.7	0.02932
1485.34	0.01516
1494.99	0.00959
1504.63	0.00659
1514.28	0.00528
1523.92	0.00413
1533.57	0.00363
1543.21	0.00319
1552.86	0.00282
1562.5	0.00262
1572.15	0.00235
1581.79	0.00233
1591.44	0.00224
1601.08	0.00253
1610.73	0.00281
1620.37	0.00274
1630.01	0.00282
1639.66	0.00332
1649.3	0.00364
1658.95	0.0045
1668.59	0.00586
1678.24	0.00899
1687.88	0.01463
1697.53	0.02553
1707.17	0.0466
1716.82	0.08179
1726.46	0.11323
1736.11	0.08241
1745.75	0.04079
1755.4	0.02042
1765.04	0.01087
1774.69	0.00621
1784.33	0.00427
1793.98	0.00314
1803.62	0.00245
1813.27	0.00212
1822.91	0.00173
1832.55	0.0016
1842.2	0.00157
1851.84	0.00166
1861.49	0.0014
1871.13	0.00132
1880.78	0.00136
1890.42	0.00141
1900.07	0.00143
1909.71	0.00131
1919.36	0.0011
1929	0.00107
1938.65	0.00134
1948.29	0.00113
1957.94	0.00122
1967.58	0.00116
1977.23	0.00137
1986.87	0.00117
1996.52	0.00138
2006.16	0.00132
2015.81	0.00131
2025.45	0.00184
2035.1	0.00209
2044.74	0.0018
2054.38	0.00168
2064.03	0.00167
2073.67	0.00139
2083.32	0.00135
2092.96	0.00144
2102.61	0.00155
2112.25	0.00145
2121.9	0.00127
2131.54	0.00139
2141.19	0.00149
2150.83	0.00153
2160.48	0.00151
2170.12	0.00144
2179.77	0.00162
2189.41	0.00164
2199.06	0.00145
2208.7	0.00152
2218.35	0.00129
2227.99	0.00137
2237.64	0.00145
2247.28	0.00138
2256.92	0.00138
2266.57	0.0015
2276.21	0.00146
2285.86	0.00143
2295.5	0.0018
2305.15	0.00159
2314.79	0.00155
2324.44	0.00159
2334.08	0.00175
2343.73	0.00165
2353.37	0.00154
2363.02	0.00163
2372.66	0.00198
2382.31	0.0019
2391.95	0.00177
2401.6	0.00175
2411.24	0.00172
2420.89	0.00153
2430.53	0.00166
2440.18	0.00178
2449.82	0.00144
2459.47	0.00188
2469.11	0.00169
2478.75	0.00205
2488.4	0.0016
2498.04	0.00178
2507.69	0.00194
2517.33	0.00221
2526.98	0.00276
2536.62	0.00261
2546.27	0.00252
2555.91	0.00241
2565.56	0.00281
2575.2	0.00274
2584.85	0.00288
2594.49	0.00317
2604.14	0.00359
2613.78	0.00424
2623.43	0.00419
2633.07	0.00395
2642.72	0.00476
2652.36	0.00518
2662.01	0.00592
2671.65	0.00583
2681.29	0.00626
2690.94	0.00668
2700.58	0.00581
2710.23	0.00622
2719.87	0.00599
2729.52	0.00645
2739.16	0.00736
2748.81	0.00758
2758.45	0.00796
2768.1	0.00821
2777.74	0.0096
2787.39	0.01192
2797.03	0.01439
2806.68	0.01759
2816.32	0.023
2825.97	0.02931
2835.61	0.04092
2845.26	0.06994
2854.9	0.15491
2864.55	0.21853
2874.19	0.15946
2883.84	0.13049
2893.48	0.13513
2903.12	0.17532
2912.77	0.25458
2922.41	0.41428
2932.06	0.58898
2941.7	0.44985
2951.35	0.27249
2960.99	0.19302
2970.64	0.15889
2980.28	0.10745
2989.93	0.07233
2999.57	0.04612
3009.22	0.03124
3018.86	0.02279
3028.51	0.01699
3038.15	0.01436
3047.8	0.01135
3057.44	0.00979
3067.09	0.00836
3076.73	0.00694
3086.38	0.00648
3096.02	0.00625
3105.67	0.0049
3115.31	0.00496
3124.95	0.00458
3134.6	0.00432
3144.24	0.00391
3153.89	0.0038
3163.53	0.00371
3173.18	0.00318
3182.82	0.00356
3192.47	0.00322
3202.11	0.00191
3211.76	0.00221
3221.4	0.0027
3231.05	0.00142
3240.69	0.00171
3250.34	0.00144
3259.98	0.00198
3269.63	0.0008749
3279.27	0.00112
3288.92	0.00129
3298.56	0.00174
3308.21	0.0013
3317.85	0.00135
3327.49	0.00133
3337.14	0.00142
3346.78	0.00133
3356.43	0.00155
3366.07	0.00147
3375.72	0.00118
3385.36	0.00141
3395.01	0.00145
3404.65	0.00202
3414.3	0.00245
3423.94	0.00328
3433.59	0.0033
3443.23	0.00297
3452.88	0.00183
3462.52	0.00195
3472.17	0.00198
3481.81	0.0008427
3491.46	0.00163
3501.1	0.00156
3510.75	0.00102
3520.39	0.0006798
3530.04	0.0004282
3539.68	0.00109
3549.32	3.267e-05
3558.97	0.0009606
3568.61	0.0007573
3578.26	0.00141
3587.9	0.00102
3597.55	0.0012
3607.19	0.00137
3616.84	0.00171
3626.48	0.00234
3636.13	0.00135
3645.77	0.0007635
3655.42	0.0013
3665.06	0.00126
3674.71	0.0014
3684.35	0.00189
3694	0.00136
3703.64	0.00132
3713.29	0.00155
3722.93	0.00151
3732.58	0.00175
3742.22	0.00126
3751.86	0.00119
3761.51	0.00128
3771.15	0.0008274
3780.8	0.0007266
3790.44	0.00124
3800.09	0.00137
3809.73	0.00158
3819.38	0.00137
3829.02	0.00201
3838.67	0.00137
3848.31	0.00111
3857.96	0.00109
3867.6	0.00227
3877.25	0.00128
3886.89	0.00143
3896.54	0.0007012
3906.18	0.00176
3915.83	0.00173
3925.47	0.00236
3935.12	0.00156
3944.76	0.0019
3954.41	0.00211
3964.05	0.00143
3973.69	0.00247
3983.34	0.00226
3992.98	0.0022
