Infrared Spectrum: 3-Heptadecanol
Formula: C 17 H 36 O
CAS: 84534-30-5
State: gas
Origin: EPA-IR VAPOR PHASE LIBRARY
1/CM	ABSORBANCE
549.8	0.001812
559.445	0.00021
569.09	0.000671
578.734	0.001057
588.379	0.001065
598.024	0.001868
607.669	0.001453
617.313	0.000975
626.958	0.00056
636.603	0.001103
646.248	0.001404
655.893	0.001424
665.537	0.00164656
675.182	0.001921
684.827	0.00164743
694.472	0.00208
704.116	0.00275
713.761	0.00319
723.406	0.00346
733.051	0.00268
742.695	0.00279
752.34	0.0020606
761.985	0.0020974
771.63	0.0020905
781.275	0.0020494
790.919	0.002215
800.564	0.00268
810.209	0.0023674
819.854	0.0021436
829.498	0.0023357
839.143	0.0022533
848.788	0.0023857
858.433	0.00265
868.078	0.0025209
877.722	0.0024944
887.367	0.00333
897.012	0.0026256
906.657	0.00335
916.301	0.00411
925.946	0.00398
935.591	0.0041
945.236	0.00556
954.88	0.00673
964.525	0.00817
974.17	0.00861
983.815	0.00758
993.46	0.00703
1003.1	0.00692
1012.75	0.00634
1022.39	0.00625
1032.04	0.00563
1041.68	0.0063
1051.33	0.00511
1060.97	0.00566
1070.62	0.00529
1080.26	0.00483
1089.91	0.00692
1099.55	0.00689
1109.2	0.00786
1118.84	0.00475
1128.49	0.00586
1138.13	0.00527
1147.78	0.00478
1157.42	0.00303
1167.07	0.00392
1176.71	0.00328
1186.36	0.00304
1196	0.0027
1205.64	0.0024033
1215.29	0.00485
1224.93	0.00467
1234.58	0.0054
1244.22	0.00537
1253.87	0.00449
1263.51	0.00418
1273.16	0.00504
1282.8	0.00462
1292.45	0.00534
1302.09	0.00567
1311.74	0.00542
1321.38	0.00507
1331.03	0.00523
1340.67	0.00651
1350.32	0.0077
1359.96	0.00819
1369.61	0.00825
1379.25	0.00827
1388.9	0.00749
1398.54	0.006
1408.18	0.00491
1417.83	0.00443
1427.47	0.00491
1437.12	0.0065
1446.76	0.01026
1456.41	0.01412
1466.05	0.0144
1475.7	0.00885
1485.34	0.00497
1494.99	0.00355
1504.63	0.00301
1514.28	0.00266
1523.92	0.0020701
1533.57	0.0025051
1543.21	0.0018604
1552.86	0.0020199
1562.5	0.0017916
1572.15	0.0019356
1581.79	0.0016128
1591.44	0.0018236
1601.08	0.0016228
1610.73	0.00166412
1620.37	0.0018667
1630.01	0.0015584
1639.66	0.001428
1649.3	0.0016144
1658.95	0.00128
1668.59	0.001513
1678.24	0.001329
1687.88	0.001485
1697.53	0.001458
1707.17	0.001471
1716.82	0.001323
1726.46	0.001377
1736.11	0.00151
1745.75	0.001355
1755.4	0.001416
1765.04	0.001481
1774.69	0.001495
1784.33	0.001368
1793.98	0.001293
1803.62	0.00136
1813.27	0.001498
1822.91	0.001405
1832.55	0.001362
1842.2	0.001309
1851.84	0.001464
1861.49	0.001334
1871.13	0.0015587
1880.78	0.001292
1890.42	0.001317
1900.07	0.001494
1909.71	0.0015784
1919.36	0.001452
1929	0.001524
1938.65	0.001283
1948.29	0.001466
1957.94	0.001306
1967.58	0.0016242
1977.23	0.001499
1986.87	0.001471
1996.52	0.001498
2006.16	0.0015425
2015.81	0.001484
2025.45	0.001505
2035.1	0.001503
2044.74	0.00172832
2054.38	0.0015927
2064.03	0.001512
2073.67	0.0016108
2083.32	0.0018214
2092.96	0.00163184
2102.61	0.001503
2112.25	0.0017433
2121.9	0.00164879
2131.54	0.001368
2141.19	0.001408
2150.83	0.00168616
2160.48	0.001574
2170.12	0.00164449
2179.77	0.00165281
2189.41	0.001518
2199.06	0.001515
2208.7	0.0016186
2218.35	0.0016687
2227.99	0.001797
2237.64	0.0016015
2247.28	0.00173144
2256.92	0.0018462
2266.57	0.00167103
2276.21	0.001886
2285.86	0.0016208
2295.5	0.0018265
2305.15	0.0015838
2314.79	0.0016026
2324.44	0.0017491
2334.08	0.0019793
2343.73	0.001483
2353.37	0.0017748
2363.02	0.00173599
2372.66	0.0017804
2382.31	0.0015862
2391.95	0.00167186
2401.6	0.00168211
2411.24	0.001366
2420.89	0.0019914
2430.53	0.0017436
2440.18	0.00170542
2449.82	0.00166919
2459.47	0.00171922
2469.11	0.0019029
2478.75	0.0019092
2488.4	0.001767
2498.04	0.001363
2507.69	0.0019144
2517.33	0.0019182
2526.98	0.0019961
2536.62	0.0022284
2546.27	0.0019916
2555.91	0.0021401
2565.56	0.0019315
2575.2	0.0021547
2584.85	0.002533
2594.49	0.0024621
2604.14	0.0025478
2613.78	0.0026169
2623.43	0.0026226
2633.07	0.0024963
2642.72	0.0027
2652.36	0.00305
2662.01	0.00299
2671.65	0.00338
2681.29	0.00344
2690.94	0.00355
2700.58	0.00308
2710.23	0.00322
2719.87	0.00354
2729.52	0.00333
2739.16	0.0038
2748.81	0.00363
2758.45	0.00364
2768.1	0.0043
2777.74	0.0045
2787.39	0.00532
2797.03	0.00566
2806.68	0.0066
2816.32	0.00796
2825.97	0.01014
2835.61	0.01386
2845.26	0.02322
2854.9	0.04846
2864.55	0.0667
2874.19	0.04979
2883.84	0.04093
2893.48	0.03867
2903.12	0.04915
2912.77	0.07334
2922.41	0.12248
2932.06	0.17794
2941.7	0.13383
2951.35	0.07424
2960.99	0.05389
2970.64	0.04941
2980.28	0.03024
2989.93	0.01687
2999.57	0.01069
3009.22	0.00863
3018.86	0.006
3028.51	0.00511
3038.15	0.0046
3047.8	0.00399
3057.44	0.00363
3067.09	0.00335
3076.73	0.00309
3086.38	0.00293
3096.02	0.00267
3105.67	0.00291
3115.31	0.0021085
3124.95	0.0026047
3134.6	0.0023766
3144.24	0.0024353
3153.89	0.0023949
3163.53	0.0022428
3173.18	0.0023
3182.82	0.0020076
3192.47	0.00170255
3202.11	0.001531
3211.76	0.00170598
3221.4	0.0019965
3231.05	0.0015788
3240.69	0.0019266
3250.34	0.0018531
3259.98	0.0021225
3269.63	0.001424
3279.27	0.001379
3288.92	0.001165
3298.56	0.0016288
3308.21	0.00172237
3317.85	0.001175
3327.49	0.001437
3337.14	0.0017683
3346.78	0.001462
3356.43	0.001127
3366.07	0.00143
3375.72	0.001392
3385.36	0.0020028
3395.01	0.001357
3404.65	0.0015
3414.3	0.001418
3423.94	0.0015455
3433.59	0.001517
3443.23	0.001253
3452.88	0.001493
3462.52	0.0017408
3472.17	0.001502
3481.81	0.001565
3491.46	0.0019865
3501.1	0.001462
3510.75	0.000979
3520.39	0.0018408
3530.04	0.001295
3539.68	0.001242
3549.32	0.001135
3558.97	0.001392
3568.61	0.001194
3578.26	0.00170991
3587.9	0.001029
3597.55	0.0017599
3607.19	0.00163873
3616.84	0.0019871
3626.48	0.0025583
3636.13	0.00266
3645.77	0.00376
3655.42	0.00442
3665.06	0.00288
3674.71	0.0026246
3684.35	0.0026032
3694	0.0022098
3703.64	0.0018294
3713.29	0.0017488
3722.93	0.001417
3732.58	0.0015498
3742.22	0.00169257
3751.86	0.0015678
3761.51	0.002007
3771.15	0.001087
3780.8	0.00165491
3790.44	0.00168168
3800.09	0.0019306
3809.73	0.001952
3819.38	0.0016085
3829.02	0.0017844
3838.67	0.0020353
3848.31	0.00112
3857.96	0.001362
3867.6	0.001347
3877.25	0.0015816
3886.89	0.001383
3896.54	0.0021279
3906.18	0.0017956
3915.83	0.0017489
3925.47	0.001408
3935.12	0.0022085
3944.76	0.001533
3954.41	0.0016088
3964.05	0.001388
3973.69	0.0019528
3983.34	0.0019592
3992.98	0.0015733
