Infrared Spectrum: 4-Dimethylamino-2-methoxybenzaldehyde
Formula: C 10 H 13 N O 2
CAS: 84562-48-1
State: gas
Origin: EPA-IR VAPOR PHASE LIBRARY
1/CM	ABSORBANCE
549.8	0.002333
559.445	0.001753
569.09	0.001723
578.735	0.001693
588.38	0.0013997
598.025	0.0016612
607.67	0.002033
617.315	0.002243
626.96	0.002203
636.605	0.003263
646.251	0.003893
655.896	0.003073
665.541	0.002163
675.186	0.001713
684.831	0.002433
694.476	0.004653
704.121	0.004223
713.766	0.002403
723.411	0.001843
733.056	0.0014448
742.701	0.0015016
752.346	0.001833
761.991	0.002173
771.636	0.003273
781.281	0.006123
790.926	0.012033
800.571	0.020463
810.216	0.023833
819.861	0.016303
829.507	0.009763
839.152	0.006213
848.797	0.004093
858.442	0.003153
868.087	0.002923
877.732	0.003593
887.377	0.003053
897.022	0.002083
906.667	0.001687
916.312	0.001803
925.957	0.002033
935.602	0.002403
945.247	0.003303
954.892	0.005183
964.537	0.010183
974.182	0.014533
983.827	0.009813
993.472	0.005623
1003.12	0.005813
1012.76	0.008163
1022.41	0.014383
1032.05	0.020713
1041.7	0.018743
1051.34	0.012743
1060.99	0.011913
1070.63	0.012933
1080.28	0.014673
1089.92	0.021513
1099.57	0.039273
1109.21	0.060943
1118.86	0.052723
1128.5	0.034303
1138.15	0.027223
1147.79	0.025723
1157.44	0.023523
1167.08	0.017293
1176.73	0.015873
1186.37	0.015743
1196.02	0.015133
1205.66	0.017983
1215.31	0.024293
1224.95	0.035013
1234.6	0.055403
1244.24	0.066713
1253.89	0.050133
1263.53	0.036243
1273.18	0.043513
1282.82	0.050633
1292.47	0.033133
1302.11	0.023973
1311.76	0.018863
1321.4	0.012593
1331.05	0.014133
1340.69	0.023933
1350.34	0.045443
1359.98	0.059453
1369.63	0.038883
1379.27	0.020743
1388.92	0.021693
1398.56	0.021953
1408.21	0.018263
1417.85	0.019193
1427.5	0.021453
1437.14	0.022643
1446.79	0.023283
1456.43	0.023043
1466.08	0.026743
1475.73	0.024363
1485.37	0.021103
1495.02	0.023593
1504.66	0.033373
1514.31	0.039823
1523.95	0.029553
1533.6	0.019823
1543.24	0.020493
1552.89	0.030783
1562.53	0.043233
1572.18	0.045123
1581.82	0.056673
1591.47	0.103123
1601.11	0.177043
1610.76	0.181513
1620.4	0.086443
1630.05	0.035373
1639.69	0.019933
1649.34	0.014363
1658.98	0.013003
1668.63	0.015893
1678.27	0.030603
1687.92	0.069553
1697.56	0.100893
1707.21	0.061583
1716.85	0.031893
1726.5	0.012503
1736.14	0.005313
1745.79	0.003933
1755.43	0.003363
1765.08	0.003053
1774.72	0.002633
1784.37	0.002323
1794.01	0.002053
1803.66	0.001863
1813.3	0.001763
1822.95	0.001753
1832.59	0.0016389
1842.24	0.0016454
1851.88	0.0015807
1861.53	0.0015549
1871.17	0.0014619
1880.82	0.0014018
1890.46	0.0016123
1900.11	0.001903
1909.75	0.001963
1919.4	0.001753
1929.04	0.0015921
1938.69	0.0015218
1948.33	0.0014761
1957.98	0.0013319
1967.62	0.0012313
1977.27	0.0012047
1986.91	0.0012999
1996.56	0.0013749
2006.2	0.0014327
2015.85	0.0014168
2025.49	0.001349
2035.14	0.001399
2044.78	0.0014468
2054.43	0.0014813
2064.07	0.0013913
2073.72	0.0012586
2083.36	0.0011132
2093.01	0.0010848
2102.65	0.0010527
2112.3	0.0009141
2121.94	0.0009674
2131.59	0.0008312
2141.23	0.0008758
2150.88	0.0009253
2160.52	0.0008145
2170.17	0.00070351
2179.81	0.000693289
2189.46	0.00077223
2199.1	0.0008646
2208.75	0.0010021
2218.39	0.0010083
2228.04	0.0008992
2237.68	0.0007952
2247.33	0.00071094
2256.97	0.0006828
2266.62	0.00071481
2276.26	0.0006512
2285.91	0.00077238
2295.55	0.0008359
2305.2	0.0008714
2314.84	0.000816
2324.49	0.0008283
2334.13	0.00076454
2343.78	0.000812
2353.42	0.000694822
2363.07	0.0006464
2372.72	0.00070383
2382.36	0.0008186
2392.01	0.0008063
2401.65	0.000926
2411.3	0.0009929
2420.94	0.0009102
2430.59	0.0009987
2440.23	0.0009781
2449.88	0.0009852
2459.52	0.0009686
2469.17	0.0010322
2478.81	0.0010685
2488.46	0.0009638
2498.1	0.0009337
2507.75	0.0009911
2517.39	0.0009687
2527.04	0.0009749
2536.68	0.0009556
2546.33	0.0008598
2555.97	0.0009349
2565.62	0.0008684
2575.26	0.0009918
2584.91	0.0012073
2594.55	0.0013599
2604.2	0.001793
2613.84	0.001893
2623.49	0.001703
2633.13	0.0015178
2642.78	0.0014086
2652.42	0.0013934
2662.07	0.0015401
2671.71	0.001963
2681.36	0.002683
2691	0.003933
2700.65	0.005463
2710.29	0.005893
2719.94	0.004763
2729.58	0.003783
2739.23	0.004423
2748.87	0.007793
2758.52	0.010573
2768.16	0.008253
2777.81	0.006933
2787.45	0.008583
2797.1	0.012463
2806.74	0.016503
2816.39	0.018193
2826.03	0.018703
2835.68	0.025093
2845.32	0.038173
2854.97	0.036843
2864.61	0.024483
2874.26	0.019853
2883.9	0.019403
2893.55	0.019843
2903.19	0.020113
2912.84	0.020263
2922.48	0.020923
2932.13	0.022953
2941.77	0.026783
2951.42	0.026983
2961.06	0.022883
2970.71	0.018273
2980.35	0.015213
2990	0.014733
2999.64	0.015733
3009.29	0.015003
3018.93	0.009853
3028.58	0.006243
3038.22	0.004663
3047.87	0.003913
3057.51	0.003103
3067.16	0.002833
3076.8	0.003503
3086.45	0.004663
3096.09	0.005233
3105.74	0.004153
3115.38	0.002903
3125.03	0.002013
3134.67	0.0014148
3144.32	0.000838
3153.96	0.000514
3163.61	0.000325
3173.25	0.000274
3182.9	0.000207
3192.54	0.000373
3202.19	0.000304
3211.83	0.000141
3221.48	0.000229
3231.12	0.000114
3240.77	8.9e-05
3250.41	0.000103
3260.06	0.000114
3269.7	0.000131
3279.35	4e-06
3289	0.000102
3298.64	0.000126
3308.29	7.6e-05
3317.93	0.00011
3327.58	0.000201
3337.22	0.000249
3346.87	0.000347
3356.51	0.0006525
3366.16	0.0012439
3375.8	0.0012192
3385.45	0.0008768
3395.09	0.000485
3404.74	0.000337
3414.38	0.000283
3424.03	0.000232
3433.67	0.000213
3443.32	0.000108
3452.96	5.2e-05
3462.61	0.000185
3472.25	0.000225
3481.9	0.000208
3491.54	0.000225
3501.19	0.000271
3510.83	0.000189
3520.48	0.00019
3530.12	0.000184
3539.77	0.000221
3549.41	0.000142
3559.06	0.000164
3568.7	0.000162
3578.35	0.000234
3587.99	0.000162
3597.64	0.000153
3607.28	0.000262
3616.93	0.000135
3626.57	0.000228
3636.22	0.000359
3645.86	0.000192
3655.51	0.000283
3665.15	0.000256
3674.8	0.000276
3684.44	0.000295
3694.09	0.000296
3703.73	0.00023
3713.38	0.000244
3723.02	0.000226
3732.67	0.000357
3742.31	0.000272
3751.96	0.000277
3761.6	0.000403
3771.25	0.000315
3780.89	0.000277
3790.54	0.000324
3800.18	0.000223
3809.83	0.000349
3819.47	0.000316
3829.12	0.000251
3838.76	0.000209
3848.41	0.000285
3858.05	0.000278
3867.7	0.000478
3877.34	0.000372
3886.99	0.000268
3896.63	0.000316
3906.28	0.000228
3915.92	0.000382
3925.57	0.000445
3935.21	0.000197
3944.86	0.000431
3954.5	0.000352
3964.15	0.000501
3973.79	0.000202
3983.44	0.000402
3993.08	0.000523
