Infrared Spectrum: 2,4-Dimethyl-3-pentanol acetate
Formula: C 9 H 18 O 2
CAS: 84612-74-8
State: gas
Instrument: HP-GC/MS/IRD
Origin: NIST Mass Spectrometry Data Center
1/CM	ABSORBANCE
550	0.000203
562	6.96e-05
574	0.0002088
586	0.0005626
598	0.0009338
610	0.0015718
622	0.0013862
634	0.0011716
646	0.0008758
658	0.0004466
670	0.000145
682	0.0001856
694	0.0001102
706	0.0001392
718	7.54e-05
730	5.8e-05
742	0.000116
754	7.54e-05
766	0.0001624
778	0.0001334
790	0.0001798
802	0.0002494
814	0.0003364
826	0.0003596
838	0.0004118
850	0.0005046
862	0.0005278
874	0.00087
886	0.0018154
898	0.0019546
910	0.0014268
922	0.0013688
934	0.0018212
946	0.003393
958	0.0070876
970	0.008381
982	0.0064902
994	0.0078126
1006	0.0103472
1018	0.0119306
1030	0.0075574
1042	0.0036424
1054	0.002929
1066	0.0031146
1078	0.003596
1090	0.0043152
1102	0.0044834
1114	0.0032828
1126	0.0033176
1138	0.0030566
1150	0.0023142
1162	0.002291
1174	0.0027086
1186	0.003422
1198	0.0050402
1210	0.0108924
1222	0.0277124
1234	0.0550594
1246	0.044834
1258	0.012702
1270	0.0049706
1282	0.0029638
1294	0.0022504
1306	0.0020358
1318	0.0018734
1330	0.0016066
1342	0.0020822
1354	0.0049242
1366	0.0114202
1378	0.0130558
1390	0.0080098
1402	0.0044602
1414	0.0021924
1426	0.001943
1438	0.0022156
1450	0.0030798
1462	0.004669
1474	0.005162
1486	0.0031146
1498	0.0015486
1510	0.0011426
1522	0.0009976
1534	0.0008584
1546	0.0007888
1558	0.0006728
1570	0.0006554
1582	0.0007134
1594	0.0007366
1606	0.0007308
1618	0.0006206
1630	0.0005742
1642	0.0005974
1654	0.0005916
1666	0.0007076
1678	0.0009396
1690	0.0014442
1702	0.0021228
1714	0.002871
1726	0.0042514
1738	0.0115768
1750	0.0296264
1762	0.0253054
1774	0.007569
1786	0.0031204
1798	0.0021634
1810	0.001885
1822	0.0014384
1834	0.0009918
1846	0.0006844
1858	0.0005626
1870	0.000464
1882	0.0003886
1894	0.0003828
1906	0.0003944
1918	0.0003712
1930	0.0002726
1942	0.0001856
1954	0.0001392
1966	0.0001624
1978	0.000145
1990	0.0001102
2002	0.0001218
2014	9.28e-05
2026	7.54e-05
2038	5.22e-05
2050	5.22e-05
2062	8.12e-05
2074	7.54e-05
2086	0.0001334
2098	0.000145
2110	0.0002552
2122	0.0003364
2134	0.00029
2146	0.0001972
2158	0.0001276
2170	0.0001044
2182	8.7e-05
2194	8.7e-05
2206	9.28e-05
2218	9.86e-05
2230	9.28e-05
2242	0.0001102
2254	0.0001044
2266	9.28e-05
2278	7.54e-05
2290	6.38e-05
2302	6.96e-05
2314	8.12e-05
2326	2.9e-05
2338	2.32e-05
2350	2.32e-05
2362	0
2374	5.22e-05
2386	7.54e-05
2398	8.7e-05
2410	9.28e-05
2422	9.86e-05
2434	9.28e-05
2446	0.0001566
2458	0.0001856
2470	0.0001624
2482	0.000116
2494	6.96e-05
2506	4.64e-05
2518	5.22e-05
2530	5.8e-05
2542	5.22e-05
2554	8.12e-05
2566	0.0001044
2578	8.7e-05
2590	0.0001276
2602	0.0001624
2614	0.0001624
2626	0.0001624
2638	0.0001682
2650	0.0001914
2662	0.0001914
2674	0.0001798
2686	0.000203
2698	0.0002146
2710	0.0002378
2722	0.0003886
2734	0.0005336
2746	0.0004814
2758	0.0004292
2770	0.000464
2782	0.0004756
2794	0.0005336
2806	0.0006148
2818	0.0007366
2830	0.000899
2842	0.0010962
2854	0.0015776
2866	0.002755
2878	0.0062466
2890	0.0083636
2902	0.0075574
2914	0.008816
2926	0.010324
2938	0.013717
2950	0.0149118
2962	0.0209554
2974	0.0301194
2986	0.0173652
2998	0.0061538
3010	0.0027376
3022	0.0018096
3034	0.0015196
3046	0.0012644
3058	0.001073
3070	0.0009164
3082	0.0008352
3094	0.000725
3106	0.0006554
3118	0.0006032
3130	0.0005046
3142	0.0004988
3154	0.0004524
3166	0.0004234
3178	0.000348
3190	0.0003596
3202	0.0003306
3214	0.000261
3226	0.0002378
3238	0.0001508
3250	0.0001276
3262	9.28e-05
3274	0.000116
3286	0.0001044
3298	0.0001218
3310	0.0001102
3322	5.22e-05
3334	4.64e-05
3346	5.22e-05
3358	9.28e-05
3370	8.12e-05
3382	8.12e-05
3394	0.0001218
3406	0.0001044
3418	0.0001044
3430	0.0001044
3442	0.0001334
3454	0.0001276
3466	0.0002378
3478	0.0003248
3490	0.0004234
3502	0.0003248
3514	0.000203
3526	0.0001508
3538	0.0001218
3550	0.0001392
3562	9.86e-05
3574	5.8e-05
3586	1.16e-05
3598	6.96e-05
3610	2.32e-05
3622	4.64e-05
3634	6.38e-05
3646	2.32e-05
3658	6.38e-05
3670	1.16e-05
3682	6.38e-05
3694	5.8e-05
3706	0
3718	5.8e-05
3730	6.96e-05
3742	8.7e-05
3754	3.48e-05
3766	8.12e-05
3778	0.000145
3790	8.12e-05
3802	6.96e-05
3814	0.0001218
3826	0.0001218
3838	9.28e-05
