Infrared Spectrum: 4-Methyl-3-hexanol acetate
Formula: C 9 H 18 O 2
CAS: 84612-71-5
State: gas
Instrument: HP-GC/MS/IRD
Origin: NIST Mass Spectrometry Data Center
1/CM	ABSORBANCE
550	5.28e-05
562	9.9e-05
574	0.0001089
586	0.0002673
598	0.0005148
610	0.0007689
622	0.0007062
634	0.000759
646	0.000363
658	0.0002046
670	0.0001221
682	5.28e-05
694	0.0001089
706	4.62e-05
718	2.31e-05
730	6.6e-06
742	0.0001023
754	8.58e-05
766	0.0001617
778	0.0003267
790	0.0003168
802	0.000231
814	0.0002343
826	0.0002937
838	0.0002178
850	0.0002376
862	0.0002673
874	0.0006072
886	0.0010725
898	0.001122
910	0.0007326
922	0.0008052
934	0.0016335
946	0.0033825
958	0.0043032
970	0.0030228
982	0.0027588
994	0.0034584
1006	0.0046035
1018	0.0052932
1030	0.0039105
1042	0.0025971
1054	0.002178
1066	0.0024387
1078	0.0024255
1090	0.0026004
1102	0.0027159
1114	0.0023001
1126	0.0022143
1138	0.0018216
1150	0.0013596
1162	0.0012804
1174	0.0012573
1186	0.0015873
1198	0.0026466
1210	0.0059202
1222	0.0154572
1234	0.0312477
1246	0.0259182
1258	0.0088011
1270	0.0038412
1282	0.0022077
1294	0.0015114
1306	0.0011022
1318	0.0009009
1330	0.0008184
1342	0.0011088
1354	0.002673
1366	0.0057585
1378	0.0065142
1390	0.0041019
1402	0.001815
1414	0.0010593
1426	0.0010395
1438	0.0012705
1450	0.0019767
1462	0.0028479
1474	0.0023595
1486	0.0012045
1498	0.0007557
1510	0.0006468
1522	0.0005841
1534	0.0005115
1546	0.0004653
1558	0.0004158
1570	0.0004092
1582	0.000396
1594	0.0003762
1606	0.000363
1618	0.00033
1630	0.0003465
1642	0.0003432
1654	0.0004158
1666	0.0004257
1678	0.0005676
1690	0.0007788
1702	0.0013002
1714	0.0018942
1726	0.0028512
1738	0.0075009
1750	0.0176748
1762	0.013926
1774	0.0042174
1786	0.0019602
1798	0.0013827
1810	0.0009207
1822	0.0006237
1834	0.0005082
1846	0.0003696
1858	0.0002607
1870	0.0002178
1882	0.0002079
1894	0.0002244
1906	0.0002013
1918	0.0001716
1930	0.0001518
1942	0.0001089
1954	9.24e-05
1966	9.24e-05
1978	9.24e-05
1990	7.92e-05
2002	0.0001023
2014	9.9e-05
2026	7.26e-05
2038	5.94e-05
2050	3.63e-05
2062	4.62e-05
2074	5.94e-05
2086	5.61e-05
2098	0.0001023
2110	0.000132
2122	0.0001749
2134	0.000165
2146	0.0001056
2158	8.58e-05
2170	5.61e-05
2182	7.59e-05
2194	4.29e-05
2206	3.63e-05
2218	3.96e-05
2230	7.92e-05
2242	5.61e-05
2254	6.27e-05
2266	7.59e-05
2278	4.62e-05
2290	2.97e-05
2302	3.3e-05
2314	5.61e-05
2326	7.59e-05
2338	9.24e-05
2350	4.95e-05
2362	6.93e-05
2374	6.6e-05
2386	8.25e-05
2398	5.28e-05
2410	5.94e-05
2422	5.61e-05
2434	7.59e-05
2446	6.27e-05
2458	8.58e-05
2470	0.0001023
2482	5.94e-05
2494	2.64e-05
2506	2.97e-05
2518	5.94e-05
2530	9.9e-06
2542	5.28e-05
2554	6.93e-05
2566	3.96e-05
2578	6.6e-05
2590	6.6e-05
2602	9.9e-05
2614	5.61e-05
2626	9.9e-05
2638	9.57e-05
2650	9.57e-05
2662	0.0001023
2674	0.0001188
2686	0.000132
2698	0.0001518
2710	0.0001815
2722	0.0001881
2734	0.000297
2746	0.0002937
2758	0.0002706
2770	0.0002244
2782	0.000264
2794	0.0003366
2806	0.0004026
2818	0.0004818
2830	0.0006006
2842	0.0008283
2854	0.0012408
2866	0.0023133
2878	0.0043626
2890	0.0058674
2902	0.00462
2914	0.0045507
2926	0.0063789
2938	0.0088044
2950	0.0094116
2962	0.0105765
2974	0.0146949
2986	0.0095172
2998	0.0034353
3010	0.0016533
3022	0.0011748
3034	0.0009537
3046	0.000825
3058	0.0006963
3070	0.0006171
3082	0.0005808
3094	0.0004554
3106	0.0004158
3118	0.000363
3130	0.0003036
3142	0.0002442
3154	0.0001881
3166	0.000231
3178	0.0001914
3190	0.0001518
3202	0.0001155
3214	5.61e-05
3226	6.93e-05
3238	4.95e-05
3250	3.96e-05
3262	4.29e-05
3274	1.65e-05
3286	7.26e-05
3298	2.31e-05
3310	5.94e-05
3322	4.62e-05
3334	7.26e-05
3346	5.61e-05
3358	2.64e-05
3370	9.9e-06
3382	0
3394	2.31e-05
3406	5.61e-05
3418	2.31e-05
3430	6.93e-05
3442	7.26e-05
3454	8.25e-05
3466	0.0001452
3478	0.000198
3490	0.0002178
3502	0.0001683
3514	9.24e-05
3526	8.58e-05
3538	4.62e-05
3550	8.25e-05
3562	6.27e-05
3574	2.97e-05
3586	2.97e-05
3598	3.96e-05
3610	5.28e-05
3622	7.59e-05
3634	3.96e-05
3646	6.6e-05
3658	6.6e-05
3670	9.57e-05
3682	4.62e-05
3694	3.96e-05
3706	6.27e-05
3718	5.61e-05
3730	8.91e-05
3742	9.9e-05
3754	0.0001023
3766	8.25e-05
3778	0.0001122
3790	1.98e-05
3802	0.000132
3814	8.25e-05
3826	0.0001122
3838	0.0001452
