Infrared Spectrum: N-METHYL-N'-p-CHLOROBENZHYDRYL HOMOPIPERAZINE
Formula: C19 H23 Cl N2
CAS: 848-53-3
State: LIQUID
Class: COBLENTZ
Instrument: PERKIN-ELMER
Sampling: TRANSMISSION
Path length: CAPILLARY
Resolution: 4
Origin: ABBOTT LABORATORIES - WASHBURN
MICROMETERS	TRANSMITTANCE
2.039	0.841
2.07314	0.84
2.10729	0.841
2.14143	0.84
2.17558	0.84
2.20972	0.8359
2.24386	0.838
2.27801	0.838
2.31215	0.8288
2.34629	0.8246
2.38044	0.824
2.41458	0.8234
2.44873	0.8235
2.48287	0.809
2.51701	0.8243
2.55116	0.828
2.5853	0.828
2.61944	0.833
2.65359	0.8365
2.68773	0.838
2.72188	0.838
2.75602	0.838
2.79016	0.838
2.82431	0.838
2.85845	0.8309
2.89259	0.821
2.92674	0.8191
2.96088	0.816
2.99503	0.812
3.02917	0.812
3.06331	0.8155
3.09746	0.816
3.1316	0.8127
3.16574	0.8075
3.19989	0.8013
3.23403	0.6864
3.26818	0.6034
3.30232	0.5669
3.33646	0.6084
3.37061	0.2223
3.40475	0.163
3.43889	0.2395
3.47304	0.281
3.50718	0.2018
3.54133	0.1729
3.57547	0.136
3.60961	0.2056
3.64376	0.3434
3.6779	0.4767
3.71204	0.5183
3.74619	0.6369
3.78033	0.7273
3.81448	0.7632
3.84862	0.7794
3.88276	0.7858
3.91691	0.7992
3.95105	0.8097
3.98519	0.8183
4.01934	0.823
4.05348	0.826
4.08763	0.829
4.12177	0.835
4.15591	0.8375
4.19006	0.84
4.2242	0.84
4.25834	0.84
4.29249	0.841
4.32663	0.84
4.36078	0.838
4.39492	0.838
4.42906	0.8378
4.46321	0.835
4.49735	0.835
4.53149	0.836
4.56564	0.8378
4.59978	0.84
4.63393	0.84
4.66807	0.8385
4.70221	0.84
4.73636	0.84
4.7705	0.8392
4.80465	0.8407
4.83879	0.841
4.87293	0.841
4.90708	0.841
4.94122	0.841
4.97536	0.841
5.00951	0.8398
5.04365	0.828
5.0778	0.8271
5.11194	0.8073
5.14608	0.798
5.18023	0.8113
5.21437	0.8153
5.24851	0.8013
5.28266	0.785
5.3168	0.7868
5.35095	0.8102
5.38509	0.8269
5.41923	0.8317
5.45338	0.8287
5.48752	0.8178
5.52166	0.8046
5.55581	0.798
5.58995	0.81
5.6241	0.814
5.65824	0.812
5.69238	0.814
5.72653	0.814
5.76067	0.8164
5.79481	0.8234
5.82896	0.8269
5.8631	0.826
5.89725	0.826
5.93139	0.8133
5.96553	0.791
5.99968	0.786
6.03382	0.786
6.06796	0.788
6.10211	0.788
6.13625	0.786
6.1704	0.78
6.20454	0.7718
6.23868	0.6203
6.27283	0.6276
6.30697	0.7045
6.34111	0.7459
6.37526	0.7698
6.4094	0.7931
6.44355	0.797
6.47769	0.797
6.51183	0.7945
6.54598	0.788
6.58012	0.7857
6.61426	0.766
6.64841	0.7182
6.68255	0.5195
6.7167	0.1211
6.75084	0.21
6.78498	0.3666
6.81913	0.3597
6.85327	0.2807
6.88741	0.1797
6.92156	0.2294
6.9557	0.3913
6.98985	0.5046
7.02399	0.627
7.05813	0.6547
7.09228	0.6053
7.12642	0.4765
7.16056	0.5215
7.19471	0.5603
7.22885	0.5252
7.263	0.4289
7.29714	0.5096
7.33128	0.52
7.36543	0.5251
7.39957	0.5666
7.43372	0.577
7.46786	0.5468
7.502	0.4948
7.53615	0.438
7.57029	0.426
7.60443	0.4248
7.63858	0.4348
7.67272	0.3838
7.70687	0.3956
7.74101	0.4273
7.77515	0.4439
7.8093	0.4783
7.84344	0.5268
7.87758	0.5162
7.91173	0.505
7.94587	0.4962
7.98002	0.4919
8.01416	0.5053
8.0483	0.505
8.08245	0.5075
8.11659	0.5265
8.15073	0.586
8.18488	0.6508
8.21902	0.678
8.25317	0.6604
8.28731	0.6193
8.32145	0.6204
8.3556	0.637
8.38974	0.6346
8.42388	0.5814
8.45803	0.5398
8.49217	0.5247
8.52632	0.4762
8.56046	0.4055
8.5946	0.4134
8.62875	0.5071
8.66289	0.5833
8.69703	0.6035
8.73118	0.6309
8.76532	0.6162
8.79947	0.5446
8.83361	0.4126
8.86775	0.2841
8.9019	0.1894
8.93604	0.1477
8.97018	0.1447
9.00433	0.1767
9.03847	0.2428
9.07262	0.288
9.10676	0.292
9.1409	0.288
9.17505	0.2114
9.20919	0.1368
9.24333	0.2444
9.27748	0.3545
9.31162	0.3644
9.34577	0.3864
9.37991	0.4202
9.41405	0.4301
9.4482	0.4026
9.48234	0.3609
9.51648	0.3214
9.55063	0.2931
9.58477	0.2791
9.61892	0.2911
9.65306	0.3824
9.6872	0.4394
9.72135	0.403
9.75549	0.3786
9.78963	0.4731
9.82378	0.52
9.85792	0.287
9.89207	0.2236
9.92621	0.4686
9.96035	0.6083
9.9945	0.6289
10.0286	0.6699
10.0628	0.6976
10.0969	0.711
10.1311	0.714
10.1652	0.7185
10.1994	0.7291
10.2335	0.7407
10.2676	0.7478
10.3018	0.7496
10.3359	0.7368
10.3701	0.7034
10.4042	0.657
10.4384	0.5998
10.4725	0.575
10.5067	0.6006
10.5408	0.6222
10.5749	0.6359
10.6091	0.647
10.6432	0.648
10.6774	0.651
10.7115	0.646
10.7457	0.62
10.7798	0.5838
10.8139	0.5809
10.8481	0.6049
10.8822	0.606
10.9164	0.5979
10.9505	0.582
10.9847	0.5934
11.0188	0.6392
11.053	0.6666
11.0871	0.6834
11.1212	0.7109
11.1554	0.7291
11.1895	0.7407
11.2237	0.745
11.2578	0.747
11.292	0.747
11.3261	0.745
11.3602	0.7336
11.3944	0.7236
11.4285	0.7094
11.4627	0.6938
11.4968	0.6837
11.531	0.68
11.5651	0.6716
11.5993	0.6336
11.6334	0.5871
11.6675	0.5479
11.7017	0.4786
11.7358	0.4073
11.77	0.3726
11.8041	0.364
11.8383	0.3657
11.8724	0.3798
11.9065	0.4086
11.9407	0.424
11.9748	0.4369
12.009	0.4552
12.0431	0.46
12.0773	0.458
12.1114	0.4379
12.1456	0.417
12.1797	0.4103
12.2138	0.403
12.248	0.4039
12.2821	0.4159
12.3163	0.4183
12.3504	0.3984
12.3846	0.3488
12.4187	0.295
12.4528	0.2593
12.487	0.2553
12.5211	0.3203
12.5553	0.4181
12.5894	0.495
12.6236	0.5606
12.6577	0.5858
12.6919	0.5914
12.726	0.6035
12.7601	0.616
12.7943	0.6376
12.8284	0.6578
12.8626	0.6718
12.8967	0.678
12.9309	0.678
12.965	0.6728
12.9991	0.6392
13.0333	0.5868
13.0674	0.5078
13.1016	0.3951
13.1357	0.2691
13.1699	0.1767
13.204	0.134
13.2382	0.1547
13.2723	0.2356
13.3064	0.3541
13.3406	0.4181
13.3747	0.469
13.4089	0.4814
13.443	0.4879
13.4772	0.4969
13.5113	0.5055
13.5454	0.5215
13.5796	0.5348
13.6137	0.5366
13.6479	0.5187
13.682	0.4904
13.7162	0.4607
13.7503	0.46
13.7845	0.4801
13.8186	0.501
13.8527	0.4811
13.8869	0.3711
13.921	0.2073
13.9552	0.148
13.9893	0.2028
14.0235	0.3434
14.0576	0.4051
14.0917	0.424
14.1259	0.3742
14.16	0.295
14.1942	0.2194
14.2283	0.1774
14.2625	0.161
14.2966	0.1494
14.3308	0.1332
14.3649	0.1354
14.399	0.179
14.4332	0.2804
14.4673	0.3688
14.5015	0.4159
14.5356	0.4475
14.5698	0.482
14.6039	0.516
14.638	0.5649
14.6722	0.5834
14.7063	0.6041
14.7405	0.6084
14.7746	0.616
14.8088	0.616
14.8429	0.616
14.8771	0.616
14.9112	0.614
14.9453	0.606
14.9795	0.6126
15.0136	0.6045
15.0478	0.58
15.0819	0.5794
15.1161	0.5834
15.1502	0.5831
15.1843	0.573
15.2185	0.5693
15.2526	0.5622
15.2868	0.5522
15.3209	0.549
15.3551	0.5485
15.3892	0.546
15.4234	0.544
15.4575	0.5293
