Infrared Spectrum: 3-Amino-1-methyl-5-methylthio-1,2,4-triazole
Formula: C 4 H 8 N 4 S
CAS: 84827-78-1
State: gas
Origin: EPA-IR VAPOR PHASE LIBRARY
1/CM	ABSORBANCE
549.8	0.004022
559.445	0.005192
569.09	0.005102
578.734	0.004672
588.379	0.005132
598.024	0.006202
607.669	0.006842
617.313	0.008872
626.958	0.011052
636.603	0.012412
646.248	0.011582
655.893	0.009532
665.537	0.007722
675.182	0.007112
684.827	0.007312
694.472	0.006562
704.116	0.006722
713.761	0.005962
723.406	0.005852
733.051	0.006282
742.695	0.007212
752.34	0.007852
761.985	0.006562
771.63	0.005712
781.275	0.004572
790.919	0.004752
800.564	0.006472
810.209	0.006162
819.854	0.005702
829.498	0.004582
839.143	0.004052
848.788	0.003442
858.433	0.003182
868.078	0.002922
877.722	0.002462
887.367	0.003032
897.012	0.002932
906.657	0.001902
916.301	0.002452
925.946	0.002422
935.591	0.002872
945.236	0.003222
954.88	0.003102
964.525	0.004342
974.17	0.005562
983.815	0.005792
993.46	0.006352
1003.1	0.006252
1012.75	0.006342
1022.39	0.004672
1032.04	0.003742
1041.68	0.003362
1051.33	0.002772
1060.97	0.004052
1070.62	0.002882
1080.26	0.002632
1089.91	0.003682
1099.55	0.004232
1109.2	0.007042
1118.84	0.007262
1128.49	0.009362
1138.13	0.013402
1147.78	0.010892
1157.42	0.007942
1167.07	0.005832
1176.71	0.004132
1186.36	0.003682
1196	0.002502
1205.64	0.001942
1215.29	0.001732
1224.93	0.001682
1234.58	0.002652
1244.22	0.003222
1253.87	0.003252
1263.51	0.004632
1273.16	0.004722
1282.8	0.005212
1292.45	0.005822
1302.09	0.008202
1311.74	0.012852
1321.38	0.015002
1331.03	0.014452
1340.67	0.021232
1350.32	0.038822
1359.96	0.049092
1369.61	0.036612
1379.25	0.016572
1388.9	0.012542
1398.54	0.015722
1408.18	0.017522
1417.83	0.015252
1427.47	0.014102
1437.12	0.018572
1446.76	0.022912
1456.41	0.024652
1466.05	0.022172
1475.7	0.014732
1485.34	0.009302
1494.99	0.008632
1504.63	0.010322
1514.28	0.016172
1523.92	0.033962
1533.57	0.064092
1543.21	0.073232
1552.86	0.050032
1562.5	0.022322
1572.15	0.013792
1581.79	0.014142
1591.44	0.022482
1601.08	0.042002
1610.73	0.057232
1620.37	0.050842
1630.01	0.030502
1639.66	0.015702
1649.3	0.009182
1658.95	0.005702
1668.59	0.003832
1678.24	0.003092
1687.88	0.002582
1697.53	0.002002
1707.17	0.001542
1716.82	0.0012641
1726.46	0.0010814
1736.11	0.0010727
1745.75	0.0009828
1755.4	0.0011314
1765.04	0.0012243
1774.69	0.0011175
1784.33	0.0009642
1793.98	0.0010206
1803.62	0.0009269
1813.27	0.000983
1822.91	0.0011433
1832.55	0.0011939
1842.2	0.0010732
1851.84	0.0010604
1861.49	0.0009387
1871.13	0.0011691
1880.78	0.00101
1890.42	0.0010988
1900.07	0.0008584
1909.71	0.0009861
1919.36	0.0011259
1929	0.0009223
1938.65	0.0009504
1948.29	0.0009594
1957.94	0.0008569
1967.58	0.0008761
1977.23	0.0008115
1986.87	0.0009218
1996.52	0.0010722
2006.16	0.0011418
2015.81	0.0011931
2025.45	0.0012259
2035.1	0.0011446
2044.74	0.0011561
2054.38	0.0014156
2064.03	0.0012931
2073.67	0.001314
2083.32	0.0011419
2092.96	0.001159
2102.61	0.0009334
2112.25	0.0010182
2121.9	0.0011348
2131.54	0.0008954
2141.19	0.0009352
2150.83	0.0009758
2160.48	0.0009572
2170.12	0.0009333
2179.77	0.0012832
2189.41	0.0010008
2199.06	0.0010772
2208.7	0.0009299
2218.35	0.0009046
2227.99	0.0011428
2237.64	0.0010738
2247.28	0.0011016
2256.92	0.0011676
2266.57	0.0011849
2276.21	0.0011473
2285.86	0.001263
2295.5	0.0011391
2305.15	0.0008019
2314.79	0.0008973
2324.44	0.0007262
2334.08	0.0009565
2343.73	0.0009279
2353.37	0.000984
2363.02	0.0009831
2372.66	0.001071
2382.31	0.0013312
2391.95	0.0009247
2401.6	0.0010187
2411.24	0.0007993
2420.89	0.0007774
2430.53	0.0008187
2440.18	0.0009321
2449.82	0.0008918
2459.47	0.0007068
2469.11	0.0009692
2478.75	0.0008001
2488.4	0.000734
2498.04	0.0009857
2507.69	0.0006562
2517.33	0.0007911
2526.98	0.0008622
2536.62	0.0007434
2546.27	0.0008788
2555.91	0.0008242
2565.56	0.0009467
2575.2	0.0009209
2584.85	0.0009087
2594.49	0.0007574
2604.14	0.0009779
2613.78	0.0010774
2623.43	0.0010632
2633.07	0.0009731
2642.72	0.0011023
2652.36	0.0011897
2662.01	0.0010747
2671.65	0.0008656
2681.29	0.0009635
2690.94	0.001053
2700.58	0.0009874
2710.23	0.0011801
2719.87	0.0010327
2729.52	0.0010678
2739.16	0.0009906
2748.81	0.0009757
2758.45	0.0009855
2768.1	0.0010993
2777.74	0.0010111
2787.39	0.001592
2797.03	0.001952
2806.68	0.001762
2816.32	0.001912
2825.97	0.001992
2835.61	0.002292
2845.26	0.002262
2854.9	0.002542
2864.55	0.002562
2874.19	0.002992
2883.84	0.003072
2893.48	0.003702
2903.12	0.004152
2912.77	0.004632
2922.41	0.006692
2932.06	0.011532
2941.7	0.016762
2951.35	0.016082
2960.99	0.010122
2970.64	0.006372
2980.28	0.004752
2989.93	0.003972
2999.57	0.003342
3009.22	0.003232
3018.86	0.003422
3028.51	0.003092
3038.15	0.002262
3047.8	0.002432
3057.44	0.002172
3067.09	0.002032
3076.73	0.001622
3086.38	0.001602
3096.02	0.0012234
3105.67	0.0010175
3115.31	0.0014007
3124.95	0.0012698
3134.6	0.0012049
3144.24	0.0012114
3153.89	0.0012376
3163.53	0.0012883
3173.18	0.0011264
3182.82	0.0008965
3192.47	0.0007765
3202.11	0.0008489
3211.76	0.0008941
3221.4	0.0009214
3231.05	0.0011588
3240.69	0.0010277
3250.34	0.00059885
3259.98	0.0004
3269.63	0.000365
3279.27	0.0007978
3288.92	0.0010698
3298.56	0.0008508
3308.21	0.0009746
3317.85	0.00055891
3327.49	0.00053311
3337.14	0.0007206
3346.78	0.0006559
3356.43	0.0007351
3366.07	0.0006799
3375.72	0.0009762
3385.36	0.0011637
3395.01	0.001992
3404.65	0.004212
3414.3	0.008412
3423.94	0.008942
3433.59	0.005082
3443.23	0.002592
3452.88	0.001552
3462.52	0.0014451
3472.17	0.001592
3481.81	0.002152
3491.46	0.003562
3501.1	0.006442
3510.75	0.008402
3520.39	0.007632
3530.04	0.004312
3539.68	0.002452
3549.32	0.001612
3558.97	0.0011667
3568.61	0.000817
3578.26	0.0010684
3587.9	0.0007055
3597.55	0.0007791
3607.19	0.000528705
3616.84	0.00062069
3626.48	0.0008103
3636.13	0.0004525
3645.77	0.0005018
3655.42	0.0008666
3665.06	0.0007374
3674.71	0.0006985
3684.35	0.000354
3694	0.0006487
3703.64	0.00058319
3713.29	0.0006578
3722.93	0.0008891
3732.58	0.0007291
3742.22	0.0006403
3751.86	0.0004807
3761.51	0.00055278
3771.15	0.0004724
3780.8	0.000207
3790.44	0.0008797
3800.09	0.00083
3809.73	0.0006259
3819.38	0.0008183
3829.02	0.0006749
3838.67	0.000369
3848.31	0.0008515
3857.96	0.0008578
3867.6	0.0007422
3877.25	0.0008133
3886.89	0.0008996
3896.54	0.0014484
3906.18	0.0009648
3915.83	0.00056617
3925.47	0.00096
3935.12	0.0004736
3944.76	0.00061613
3954.41	0.0009099
3964.05	0.0008264
3973.69	0.0009122
3983.34	0.0013382
3992.98	0.0009782
