Infrared Spectrum: DICYCLOHEXYL ADIPATE
Formula: C18 H30 O4
CAS: 849-99-0
State: SOLID (MINERAL OIL MULL)
Melting point: 34-36 C
Class: COBLENTZ
Instrument: Not specified, most likely a prism, grating, or hybrid spectrometer.
Sampling: TRANSMISSION
Resolution: 4
Origin: WYANDOTTE CHEMICALS CORP., WYANDOTTE, MICHIGAN, USA
MICROMETERS	TRANSMITTANCE
2.02	0.696
2.05972	0.703
2.09943	0.711
2.13915	0.718
2.17887	0.718
2.21858	0.686
2.2583	0.673
2.29802	0.671
2.33773	0.673
2.37745	0.676
2.41717	0.688
2.45688	0.693
2.4966	0.701
2.53632	0.706
2.57603	0.716
2.61575	0.724
2.65547	0.733
2.69518	0.739
2.7349	0.739
2.77462	0.736
2.81433	0.731
2.85405	0.721
2.89377	0.714
2.93348	0.681
2.9732	0.684
3.01292	0.696
3.05263	0.698
3.09235	0.691
3.13207	0.679
3.17178	0.671
3.2115	0.658
3.25122	0.64
3.29093	0.585
3.33065	0.462
3.37037	0.135
3.41008	0.077
3.4498	0.074
3.48952	0.097
3.52923	0.139
3.56895	0.447
3.60867	0.616
3.64838	0.671
3.6881	0.681
3.72782	0.673
3.76753	0.655
3.80725	0.693
3.84697	0.713
3.88668	0.729
3.9264	0.752
3.96612	0.762
4.00583	0.774
4.04555	0.772
4.08527	0.782
4.12498	0.779
4.1647	0.776
4.20442	0.782
4.24413	0.779
4.28385	0.774
4.32357	0.782
4.36328	0.802
4.403	0.815
4.44272	0.804
4.48243	0.809
4.52215	0.819
4.56187	0.819
4.60158	0.822
4.6413	0.829
4.68102	0.832
4.72073	0.837
4.76045	0.839
4.80017	0.834
4.83988	0.825
4.8796	0.837
4.91932	0.839
4.95903	0.845
4.99875	0.855
5.03847	0.862
5.07818	0.862
5.1179	0.86
5.15762	0.865
5.19733	0.87
5.23705	0.86
5.27677	0.862
5.31648	0.862
5.3562	0.855
5.39592	0.845
5.43563	0.832
5.47535	0.82
5.51507	0.789
5.55478	0.736
5.5945	0.704
5.63422	0.643
5.67393	0.519
5.71365	0.325
5.75337	0.124
5.79308	0.072
5.8328	0.147
5.87252	0.276
5.91223	0.396
5.95195	0.48
5.99167	0.605
6.03138	0.645
6.0711	0.684
6.11082	0.713
6.15053	0.742
6.19025	0.774
6.22996	0.797
6.26968	0.832
6.3094	0.839
6.34911	0.829
6.38883	0.832
6.42855	0.827
6.46826	0.819
6.50798	0.8
6.5477	0.799
6.58741	0.796
6.62713	0.787
6.66685	0.772
6.70656	0.742
6.74628	0.611
6.786	0.252
6.82571	0.164
6.86543	0.122
6.90515	0.152
6.94486	0.373
6.98458	0.461
7.0243	0.237
7.06401	0.177
7.10373	0.286
7.14345	0.257
7.18316	0.245
7.22288	0.233
7.2626	0.159
7.30231	0.182
7.34203	0.175
7.38175	0.316
7.42146	0.406
7.46118	0.485
7.5009	0.502
7.54061	0.431
7.58033	0.341
7.62005	0.364
7.65976	0.293
7.69948	0.291
7.7392	0.296
7.77891	0.25
7.81863	0.21
7.85835	0.179
7.89806	0.144
7.93778	0.124
7.9775	0.096
8.01721	0.119
8.05693	0.14
8.09665	0.177
8.13636	0.271
8.17608	0.331
8.2158	0.343
8.25551	0.301
8.29523	0.247
8.33495	0.167
8.37466	0.116
8.41438	0.122
8.4541	0.122
8.49381	0.111
8.53353	0.099
8.57325	0.099
8.61296	0.129
8.65268	0.14
8.6924	0.135
8.73211	0.121
8.77183	0.132
8.81155	0.17
8.85126	0.19
8.89098	0.194
8.9307	0.233
8.97041	0.306
9.01013	0.349
9.04985	0.373
9.08956	0.379
9.12928	0.306
9.169	0.311
9.20871	0.404
9.24843	0.414
9.28815	0.378
9.32786	0.447
9.36758	0.447
9.4073	0.278
9.44701	0.202
9.48673	0.2
9.52645	0.217
9.56616	0.24
9.60588	0.232
9.6456	0.247
9.68531	0.253
9.72503	0.278
9.76475	0.318
9.80446	0.217
9.84418	0.157
9.8839	0.157
9.92361	0.22
9.96333	0.293
10.003	0.348
10.0428	0.381
10.0825	0.409
10.1222	0.424
10.1619	0.427
10.2016	0.429
10.2413	0.432
10.2811	0.439
10.3208	0.451
10.3605	0.459
10.4002	0.456
10.4399	0.353
10.4796	0.238
10.5194	0.22
10.5591	0.266
10.5988	0.306
10.6385	0.343
10.6782	0.369
10.7179	0.354
10.7577	0.286
10.7974	0.208
10.8371	0.187
10.8768	0.22
10.9165	0.202
10.9562	0.27
10.996	0.252
11.0357	0.194
11.0754	0.28
11.1151	0.421
11.1548	0.477
11.1945	0.474
11.2343	0.344
11.274	0.18
11.3137	0.303
11.3534	0.485
11.3931	0.573
11.4328	0.61
11.4726	0.623
11.5123	0.633
11.552	0.633
11.5917	0.64
11.6314	0.648
11.6711	0.669
11.7109	0.676
11.7506	0.689
11.7903	0.693
11.83	0.684
11.8697	0.641
11.9094	0.482
11.9492	0.487
11.9889	0.603
12.0286	0.648
12.0683	0.661
12.108	0.669
12.1477	0.674
12.1875	0.678
12.2272	0.684
12.2669	0.689
12.3066	0.701
12.3463	0.699
12.386	0.703
12.4258	0.693
12.4655	0.681
12.5052	0.65
12.5449	0.522
12.5846	0.585
12.6243	0.668
12.6641	0.665
12.7038	0.65
12.7435	0.709
12.7832	0.729
12.8229	0.739
12.8626	0.741
12.9024	0.741
12.9421	0.741
12.9818	0.734
13.0215	0.733
13.0612	0.731
13.1009	0.728
13.1407	0.721
13.1804	0.713
13.2201	0.709
13.2598	0.708
13.2995	0.703
13.3392	0.696
13.379	0.688
13.4187	0.676
13.4584	0.653
13.4981	0.61
13.5378	0.54
13.5775	0.444
13.6173	0.33
13.657	0.348
13.6967	0.451
13.7364	0.558
13.7761	0.6
13.8158	0.608
13.8556	0.605
13.8953	0.6
13.935	0.601
13.9747	0.606
14.0144	0.638
14.0541	0.66
14.0939	0.684
14.1336	0.708
14.1733	0.723
14.213	0.731
14.2527	0.737
14.2924	0.754
14.3322	0.756
14.3719	0.761
14.4116	0.762
14.4513	0.767
14.491	0.766
14.5307	0.767
14.5705	0.769
14.6102	0.772
14.6499	0.771
14.6896	0.771
14.7293	0.774
14.769	0.779
14.8088	0.769
14.8485	0.771
14.8882	0.772
14.9279	0.777
14.9676	0.777
15.0073	0.754
15.0471	0.731
15.0868	0.709
15.1265	0.701
15.1662	0.723
15.2059	0.734
15.2456	0.744
15.2854	0.747
15.3251	0.746
15.3648	0.741
15.4045	0.736
15.4442	0.737
15.4839	0.728
15.5237	0.724
15.5634	0.723
15.6031	0.716
15.6428	0.709
15.6825	0.708
15.7222	0.706
15.762	0.699
15.8017	0.693
15.8414	0.678
15.8811	0.678
15.9208	0.666
15.9605	0.656
16.0003	0.648
