Infrared Spectrum: BENZO(f)QUINOLINE, 3-METHYL-
Formula: C14 H11 N
CAS: 85-06-3
State: SOLUTION (CCl4 FOR 2-9.6, CS2 FOR 8.5-16 MICRON) VS SOLVENT
Melting point: 80-82 C
Class: COBLENTZ III
Instrument: BAIRD (GRATING)
Instrument parameters: NaCl PRISM
Sampling: TRANSMISSION
Path length: 0.01 CM, AND 0.01 CM , REFERENCE CELLS : 0.005 CM
Resolution: 2
Origin: WYANDOTTE CHEMICALS CORP.
1/CM	TRANSMITTANCE
4000	0.89
3991	0.8902
3982	0.8904
3973	0.8907
3964	0.8909
3955	0.8912
3946	0.8921
3937	0.8934
3928	0.8944
3919	0.8956
3910	0.8967
3901	0.8978
3892	0.899
3883	0.9002
3874	0.9014
3865	0.9024
3856	0.9033
3847	0.9041
3838	0.9049
3829	0.9057
3820	0.9066
3811	0.9073
3802	0.9082
3793	0.909
3784	0.91
3775	0.9109
3766	0.9118
3757	0.9127
3748	0.9136
3739	0.9145
3730	0.9153
3721	0.9159
3712	0.9164
3703	0.917
3694	0.9177
3685	0.9182
3676	0.9188
3667	0.9195
3658	0.92
3649	0.9204
3640	0.9205
3631	0.9207
3622	0.9209
3613	0.921
3604	0.9211
3595	0.9213
3586	0.9212
3577	0.9211
3568	0.9209
3559	0.9207
3550	0.9205
3541	0.9196
3532	0.9187
3523	0.9178
3514	0.9167
3505	0.9152
3496	0.9138
3487	0.9121
3478	0.9099
3469	0.9075
3460	0.905
3451	0.9024
3442	0.8997
3433	0.8978
3424	0.8961
3415	0.8944
3406	0.8942
3397	0.8943
3388	0.8944
3379	0.895
3370	0.8957
3361	0.8963
3352	0.8967
3343	0.897
3334	0.8967
3325	0.8951
3316	0.893
3307	0.8898
3298	0.8878
3289	0.8863
3280	0.8861
3271	0.8863
3262	0.887
3253	0.8878
3244	0.8885
3235	0.8892
3226	0.8898
3217	0.8904
3208	0.8907
3199	0.8908
3190	0.8908
3181	0.8907
3172	0.8905
3163	0.89
3154	0.889
3145	0.8878
3136	0.8859
3127	0.881
3118	0.8702
3109	0.8365
3100	0.8128
3091	0.7461
3082	0.6467
3073	0.551
3064	0.4617
3055	0.4621
3046	0.4881
3037	0.5241
3028	0.5603
3019	0.5968
3010	0.6334
3001	0.6703
2992	0.7074
2983	0.729
2974	0.7283
2965	0.7208
2956	0.7056
2947	0.6904
2938	0.675
2929	0.6718
2920	0.6926
2911	0.728
2902	0.7637
2893	0.7956
2884	0.806
2875	0.8141
2866	0.8178
2857	0.8193
2848	0.8266
2839	0.8375
2830	0.8505
2821	0.8665
2812	0.8827
2803	0.9001
2794	0.9128
2785	0.9278
2776	0.9455
2767	0.9571
2758	0.9567
2749	0.9549
2740	0.9524
2731	0.9506
2722	0.9489
2713	0.9481
2704	0.9481
2695	0.949
2686	0.95
2677	0.9517
2668	0.9538
2659	0.9558
2650	0.9571
2641	0.9585
2632	0.9598
2623	0.9606
2614	0.9612
2605	0.9616
2596	0.9613
2587	0.961
2578	0.9605
2569	0.9598
2560	0.9591
2551	0.9591
2542	0.9591
2533	0.9592
2524	0.9599
2515	0.9607
2506	0.9628
2497	0.9654
2488	0.9675
2479	0.9692
2470	0.97
2461	0.9703
2452	0.9702
2443	0.97
2434	0.9698
2425	0.9696
2416	0.9702
2407	0.9711
2398	0.9724
2389	0.9737
2380	0.974
2371	0.9742
2362	0.9747
2353	0.9758
2344	0.9768
2335	0.978
2326	0.9792
2317	0.9801
2308	0.9805
2299	0.9805
2290	0.98
2281	0.9775
2272	0.9744
2263	0.972
2254	0.971
2245	0.9718
2236	0.9751
2227	0.9786
2218	0.9823
2209	0.9866
2200	0.9917
2191	0.9966
2182	0.9991
2173	0.9978
2164	0.9968
2155	0.996
2146	0.9952
2137	0.9948
2128	0.9963
2119	0.9967
2110	0.997
2101	0.9974
2092	0.9978
2083	0.9982
2074	0.9985
2065	0.9984
2056	0.9981
2047	0.9975
2038	0.9975
2029	0.9978
2020	0.9981
2011	0.9984
2002	0.9987
1993	0.999
1984	0.9996
1975	1
1966	1.0002
1957	1.0003
1948	0.9993
1939	0.9813
1930	0.9525
1921	0.9358
1912	0.9209
1903	0.916
1894	0.9304
1885	0.9547
1876	0.9655
1867	0.9778
1858	0.9904
1849	0.9952
1840	0.9956
1831	0.9875
1822	0.9764
1813	0.9752
1804	0.9621
1795	0.9244
1786	0.9304
1777	0.9304
1768	0.941
1759	0.9551
1750	0.9677
1741	0.9775
1732	0.9828
1723	0.9851
1714	0.9851
1705	0.9791
1696	0.9465
1687	0.9293
1678	0.9275
1669	0.9211
1660	0.9117
1651	0.9032
1642	0.8727
1633	0.7128
1624	0.5295
1615	0.1979
1606	0.2139
1597	0.3714
1588	0.3829
1579	0.4928
1570	0.5267
1561	0.5357
1552	0.5533
1543	0.5628
1534	0.5507
1525	0.6009
1516	0.6558
1507	0.4769
1498	0.3114
1489	0.2929
1480	0.507
1471	0.416
1462	0.4903
1453	0.5968
1444	0.6456
1435	0.6808
1426	0.5768
1417	0.3757
1408	0.6038
1399	0.7389
1390	0.7851
1381	0.7011
1372	0.731
1363	0.6076
1354	0.8026
1345	0.6686
1336	0.7034
1327	0.8473
1318	0.9121
1309	0.8347
1300	0.8212
1291	0.9168
1282	0.9261
1273	0.8766
1264	0.5484
1255	0.5351
1246	0.4165
1237	0.5796
1228	0.8108
1219	0.8111
1210	0.8346
1201	0.8614
1192	0.6302
1183	0.8494
1174	0.9196
1165	0.9193
1156	0.885
1147	0.891
1138	0.8433
1129	0.893
1120	0.9097
1111	0.8988
1102	0.8902
1093	0.461
1084	0.7311
1075	0.8111
1066	0.8509
1057	0.8602
1048	0.8202
1039	0.5851
1030	0.5731
1021	0.7267
1012	0.7368
1003	0.6471
994	0.6231
985	0.8237
976	0.8434
967	0.821
958	0.7505
949	0.8051
940	0.5901
931	0.821
922	0.8378
913	0.9096
904	0.929
895	0.9314
886	0.9395
877	0.8958
868	0.5941
859	0.3903
850	0.7105
841	0.605
832	0.1178
823	0.106
814	0.0926
805	0.5867
796	0.7162
787	0.7543
778	0.6112
769	0.7255
760	0.5407
751	0.0961
742	0.1577
733	0.7191
724	0.8508
715	0.5221
706	0.8088
697	0.9281
688	0.95
679	0.9487
670	0.8089
661	0.8659
652	0.8968
643	0.893
634	0.9007
625	0.8908
