Infrared Spectrum: PHENOL, 2-BENZOYL-4-CHLORO-
Formula: C13 H9 Cl O2
CAS: 85-19-8
State: SOLUTION (10% CCl4 FOR 2.7-7.5, 10% CS2 FOR 7.5-26 MICRON) VS SOLVENT
Class: COBLENTZ III
Instrument: DOW KBr FOREPRISM-GRATING
Instrument parameters: BLAZED AT 3.5, 12.0, 20.0 MICRON AND CHANGED AT 5.0, 7.5, 14.9 MICRON
Sampling: TRANSMISSION
Path length: 0.011 CM, 0.011 CM
Resolution: 2
Origin: DOW CHEMICAL COMPANY
1/CM	TRANSMITTANCE
3800	0.8611
3791	0.8611
3782	0.8612
3773	0.8609
3764	0.8605
3755	0.8599
3746	0.8594
3737	0.8592
3728	0.8594
3719	0.8595
3710	0.8598
3701	0.8601
3692	0.8604
3683	0.8607
3674	0.8608
3665	0.8609
3656	0.8609
3647	0.8611
3638	0.8613
3629	0.8614
3620	0.8618
3611	0.8623
3602	0.8628
3593	0.8633
3584	0.864
3575	0.8646
3566	0.8652
3557	0.8659
3548	0.8666
3539	0.8671
3530	0.8677
3521	0.8681
3512	0.8685
3503	0.8684
3494	0.8683
3485	0.8677
3476	0.8667
3467	0.8655
3458	0.8637
3449	0.8618
3440	0.8596
3431	0.8562
3422	0.8527
3413	0.8481
3404	0.8435
3395	0.8381
3386	0.8325
3377	0.826
3368	0.8195
3359	0.8133
3350	0.8072
3341	0.8008
3332	0.7951
3323	0.7893
3314	0.7821
3305	0.7746
3296	0.7671
3287	0.7595
3278	0.7518
3269	0.7441
3260	0.7372
3251	0.7304
3242	0.7194
3233	0.7083
3224	0.6988
3215	0.6946
3206	0.6925
3197	0.6892
3188	0.6806
3179	0.6717
3170	0.6656
3161	0.6628
3152	0.6611
3143	0.6565
3134	0.6482
3125	0.6389
3116	0.6281
3107	0.6129
3098	0.5957
3089	0.5534
3080	0.5469
3071	0.5312
3062	0.5099
3053	0.576
3044	0.5853
3035	0.5814
3026	0.5776
3017	0.6087
3008	0.6301
2999	0.6482
2990	0.6636
2981	0.6771
2972	0.6889
2963	0.6971
2954	0.7046
2945	0.7115
2936	0.7174
2927	0.7211
2918	0.7228
2909	0.7251
2900	0.7301
2891	0.7375
2882	0.7438
2873	0.7499
2864	0.7557
2855	0.7612
2846	0.7651
2837	0.7681
2828	0.7704
2819	0.7712
2810	0.7728
2801	0.7747
2792	0.7765
2783	0.7775
2774	0.7792
2765	0.7842
2756	0.7878
2747	0.7907
2738	0.7934
2729	0.796
2720	0.7985
2711	0.8007
2702	0.8033
2693	0.8057
2684	0.8053
2675	0.806
2666	0.8078
2657	0.8126
2648	0.8184
2639	0.8252
2630	0.8302
2621	0.8302
2612	0.8301
2603	0.8312
2594	0.8323
2585	0.8273
2576	0.8218
2567	0.8224
2558	0.8286
2549	0.836
2540	0.8418
2531	0.8453
2522	0.848
2513	0.8494
2504	0.8509
2495	0.8525
2486	0.8544
2477	0.8562
2468	0.8587
2459	0.8608
2450	0.8621
2441	0.8627
2432	0.8639
2423	0.865
2414	0.8668
2405	0.8682
2396	0.8643
2387	0.8628
2378	0.8633
2369	0.8636
2360	0.8641
2351	0.8644
2342	0.8649
2333	0.8647
2324	0.8646
2315	0.8647
2306	0.8648
2297	0.8652
2288	0.865
2279	0.8625
2270	0.8625
2261	0.8671
2252	0.8694
2243	0.8718
2234	0.8746
2225	0.8775
2216	0.8795
2207	0.8806
2198	0.8814
2189	0.8818
2180	0.8898
2171	0.8877
2162	0.8816
2153	0.8818
2144	0.8803
2135	0.8775
2126	0.8766
2117	0.8799
2108	0.8821
2099	0.8821
2090	0.8815
2081	0.8803
2072	0.8788
2063	0.8774
2054	0.8763
2045	0.8754
2036	0.8751
2027	0.8751
2018	0.8755
2009	0.8774
2000	0.8788
1991	0.8773
1982	0.872
1973	0.8605
1964	0.8614
1955	0.8464
1946	0.8597
1937	0.875
1928	0.8767
1919	0.872
1910	0.8517
1901	0.794
1892	0.8089
1883	0.8462
1874	0.8633
1865	0.869
1856	0.8699
1847	0.8673
1838	0.8658
1829	0.8678
1820	0.8611
1811	0.8352
1802	0.8364
1793	0.8478
1784	0.823
1775	0.8028
1766	0.8197
1757	0.839
1748	0.8498
1739	0.8537
1730	0.8536
1721	0.8539
1712	0.8482
1703	0.8383
1694	0.8243
1685	0.8062
1676	0.7864
1667	0.6907
1658	0.6501
1649	0.58
1640	0.2224
1631	0.0076
1622	0.0975
1613	0.1704
1604	0.1189
1595	0.1335
1586	0.3796
1577	0.2328
1568	0.3362
1559	0.5654
1550	0.6115
1541	0.6447
1532	0.6708
1523	0.6786
1514	0.6804
1505	0.6681
1496	0.4657
1487	0.3205
1478	0.1829
1469	0.0162
1460	0.0909
1451	0.1132
1442	0.6041
1433	0.6368
1424	0.6915
1415	0.7189
1406	0.4728
1397	0.5291
1388	0.5593
1379	0.5695
1370	0.5029
1361	0.4574
1352	0.3391
1343	0.1241
1334	0.0946
1325	0.0146
1316	0.2362
1307	0.4026
1298	0.3292
1289	0.0782
1280	0.4652
1271	0.5735
1262	0.5801
1253	0.5703
1244	0.1604
1235	0.0543
1226	0.0536
1217	0.0545
1208	0.0318
1199	0.436
1190	0.5632
1181	0.2629
1172	0.5724
1163	0.6458
1154	0.2293
1145	0.5888
1136	0.6961
1127	0.7531
1118	0.6978
1109	0.6974
1100	0.7299
1091	0.4503
1082	0.7233
1073	0.6908
1064	0.7658
1055	0.8005
1046	0.8287
1037	0.836
1028	0.6271
1019	0.8118
1010	0.8282
1001	0.7037
992	0.8089
983	0.8034
974	0.7989
965	0.7487
956	0.449
947	0.2294
938	0.7461
929	0.7561
920	0.7284
911	0.7858
902	0.7711
893	0.5678
884	0.7803
875	0.8024
866	0.7958
857	0.7876
848	0.7712
839	0.3349
830	0.0175
821	0.5966
812	0.582
803	0.4807
794	0.5978
785	0.4832
776	0.3342
767	0.1852
758	0.1809
749	0.3166
740	0.3582
731	0.6219
722	0.598
713	0.5943
704	0.2654
695	0.0312
686	0.3787
677	0.6112
668	0.1588
659	0.6243
650	0.6035
641	0.5706
632	0.7267
623	0.7836
614	0.7915
605	0.799
596	0.8065
587	0.8075
578	0.8004
569	0.7374
560	0.5957
551	0.7457
542	0.7582
533	0.4577
524	0.7158
515	0.7965
506	0.8176
497	0.8217
488	0.6229
479	0.7612
470	0.7992
461	0.8115
452	0.814
443	0.8058
434	0.8021
425	0.8054
416	0.8048
407	0.803
398	0.8036
