Infrared Spectrum: 8-Chlorotheophylline
Formula: C 7 H 7 Cl N 4 O 2
CAS: 85-18-7
State: gas
Origin: EPA-IR VAPOR PHASE LIBRARY
1/CM	ABSORBANCE
549.9	0.000286
559.547	0.000235
569.193	0.000261
578.84	0.000142
588.486	0.000161
598.133	4.5e-05
607.779	0.0003525
617.426	0.0006122
627.072	0.000146
636.719	0.0001
646.365	0.000146
656.012	8.4e-05
665.658	8.1e-05
675.305	0.000167
684.951	0.0006445
694.598	0.0012393
704.245	0.0006601
713.891	0.000261
723.538	0.00041658
733.184	0.000213
742.831	0.0008633
752.477	0.003135
762.124	0.004065
771.77	0.0013255
781.417	0.0005139
791.063	0.0005629
800.71	0.000248
810.356	0.000123
820.003	0.000201
829.649	0.000182
839.296	0.000174
848.943	0.000212
858.589	0.00043419
868.236	0.0003624
877.882	0.000273
887.529	0.000205
897.175	0.000177
906.822	0.000264
916.468	0.00044097
926.115	0.0003664
935.761	0.0005156
945.408	0.0008145
955.054	0.001745
964.701	0.004845
974.347	0.005025
983.994	0.002335
993.64	0.001535
1003.29	0.0008576
1012.93	0.0011865
1022.58	0.002685
1032.23	0.004985
1041.87	0.005635
1051.52	0.004195
1061.17	0.001805
1070.81	0.0008558
1080.46	0.0009811
1090.11	0.001555
1099.75	0.001825
1109.4	0.0013392
1119.05	0.0007653
1128.69	0.0006357
1138.34	0.0006245
1147.99	0.0005416
1157.63	0.0006214
1167.28	0.0006947
1176.92	0.0007669
1186.57	0.0006048
1196.22	0.0010318
1205.86	0.003265
1215.51	0.003635
1225.16	0.0013906
1234.8	0.0008868
1244.45	0.001665
1254.1	0.002535
1263.74	0.003675
1273.39	0.004555
1283.04	0.003275
1292.68	0.001695
1302.33	0.001795
1311.98	0.003165
1321.62	0.004695
1331.27	0.003705
1340.92	0.002275
1350.56	0.002315
1360.21	0.003945
1369.86	0.007535
1379.5	0.011745
1389.15	0.014685
1398.79	0.025445
1408.44	0.035035
1418.09	0.029945
1427.73	0.020095
1437.38	0.018535
1447.03	0.011745
1456.67	0.004245
1466.32	0.002635
1475.97	0.002095
1485.61	0.001755
1495.26	0.001815
1504.91	0.002475
1514.55	0.003145
1524.2	0.004375
1533.85	0.006475
1543.49	0.008895
1553.14	0.010065
1562.79	0.007065
1572.43	0.003965
1582.08	0.002535
1591.73	0.002265
1601.37	0.002965
1611.02	0.005765
1620.67	0.008225
1630.31	0.005185
1639.96	0.002875
1649.6	0.003405
1659.25	0.005915
1668.9	0.009425
1678.54	0.018565
1688.19	0.056095
1697.84	0.083005
1707.48	0.041835
1717.13	0.024335
1726.78	0.046835
1736.42	0.043035
1746.07	0.014725
1755.72	0.005845
1765.36	0.003655
1775.01	0.002885
1784.66	0.002045
1794.3	0.001425
1803.95	0.0011301
1813.6	0.0009936
1823.24	0.0009514
1832.89	0.0010612
1842.54	0.0009705
1852.18	0.0007027
1861.83	0.000584
1871.47	0.0005128
1881.12	0.0004789
1890.77	0.0005089
1900.41	0.00045624
1910.06	0.0005141
1919.71	0.00047307
1929.35	0.00048602
1939	0.0003891
1948.65	0.0003617
1958.29	0.0003775
1967.94	0.0003547
1977.59	0.0003825
1987.23	0.00044964
1996.88	0.00042206
2006.53	0.00040409
2016.17	0.0003482
2025.82	0.0003903
2035.47	0.00043645
2045.11	0.00044072
2054.76	0.000404982
2064.41	0.000412082
2074.05	0.00040189
2083.7	0.00044617
2093.35	0.000406959
2102.99	0.000411299
2112.64	0.0003857
2122.28	0.0003733
2131.93	0.0003713
2141.58	0.0003494
2151.22	0.0003501
2160.87	0.0003883
2170.52	0.00040146
2180.16	0.0004376
2189.81	0.000413891
2199.46	0.00046468
2209.1	0.00042423
2218.75	0.00044583
2228.4	0.00043769
2238.04	0.00047339
2247.69	0.0004192
2257.34	0.00044386
2266.98	0.000412863
2276.63	0.00042778
2286.28	0.00046045
2295.92	0.000515
2305.57	0.0005543
2315.22	0.0005843
2324.86	0.00050054
2334.51	0.00047733
2344.16	0.00048262
2353.8	0.0005145
2363.45	0.00047254
2373.09	0.00050442
2382.74	0.00050305
2392.39	0.0005128
2402.03	0.00048666
2411.68	0.0005159
2421.33	0.0005916
2430.97	0.00045599
2440.62	0.00045027
2450.27	0.00045659
2459.91	0.00048079
2469.56	0.00050378
2479.21	0.00050195
2488.85	0.00049497
2498.5	0.0005118
2508.15	0.0005084
2517.79	0.000568
2527.44	0.000604
2537.09	0.0005741
2546.73	0.0005763
2556.38	0.0006553
2566.03	0.0006974
2575.67	0.0007259
2585.32	0.000601
2594.96	0.0005351
2604.61	0.00049195
2614.26	0.0005105
2623.9	0.0005667
2633.55	0.0005466
2643.2	0.0005809
2652.84	0.000573
2662.49	0.0005511
2672.14	0.0005968
2681.78	0.0005312
2691.43	0.0005067
2701.08	0.00048986
2710.72	0.0005565
2720.37	0.00047687
2730.02	0.0005157
2739.66	0.0006542
2749.31	0.0006486
2758.96	0.0005618
2768.6	0.0005896
2778.25	0.0005308
2787.9	0.0005742
2797.54	0.0006082
2807.19	0.0006938
2816.84	0.0006195
2826.48	0.0006923
2836.13	0.0007947
2845.77	0.0006831
2855.42	0.0007121
2865.07	0.0008578
2874.71	0.0008806
2884.36	0.0010405
2894.01	0.0012752
2903.65	0.001495
2913.3	0.001565
2922.95	0.001705
2932.59	0.001875
2942.24	0.002185
2951.89	0.003195
2961.53	0.004025
2971.18	0.003635
2980.83	0.002425
2990.47	0.001795
3000.12	0.0013045
3009.77	0.0011204
3019.41	0.0007894
3029.06	0.0006896
3038.71	0.0006619
3048.35	0.0005959
3058	0.000412147
3067.64	0.0005149
3077.29	0.0005427
3086.94	0.0005985
3096.58	0.0006408
3106.23	0.0005131
3115.88	0.0005153
3125.52	0.0005075
3135.17	0.00044451
3144.82	0.00049578
3154.46	0.0003643
3164.11	0.000266
3173.76	0.0003407
3183.4	0.000273
3193.05	0.0005888
3202.7	0.0003201
3212.34	0.000227
3221.99	0.000302
3231.64	0.000167
3241.28	0.0003757
3250.93	0.0003426
3260.58	0.0003135
3270.22	0.000305
3279.87	0.0003267
3289.52	0.0003486
3299.16	0.000288
3308.81	0.000292
3318.45	0.000345
3328.1	0.000289
3337.75	0.0003638
3347.39	0.0003903
3357.04	0.0005429
3366.69	0.00049768
3376.33	0.00046132
3385.98	0.0005996
3395.63	0.000619
3405.27	0.0006471
3414.92	0.0009139
3424.57	0.0007042
3434.21	0.0006012
3443.86	0.0008119
3453.51	0.0011347
3463.15	0.002295
3472.8	0.004205
3482.45	0.006995
3492.09	0.011585
3501.74	0.006175
3511.39	0.0011844
3521.03	0.0005291
3530.68	0.00047191
3540.33	0.0005529
3549.97	0.0003507
3559.62	0.000206
3569.26	0.0003393
3578.91	0.000225
3588.56	0.000172
3598.2	0.0003502
3607.85	0.0003602
3617.5	0.0003248
3627.14	0.000278
3636.79	0.000191
3646.44	0.0004151
3656.08	0.0003873
3665.73	0.00024
3675.38	0.000222
3685.02	0.0003925
3694.67	0.000404393
3704.32	0.000305
3713.96	0.0003134
3723.61	0.000273
3733.26	0.0003062
3742.9	0.000278
3752.55	0.0003888
3762.2	0.0003436
3771.84	0.0003652
3781.49	0.000387
3791.13	0.0003803
3800.78	0.000243
3810.43	0.0003811
3820.07	0.0003636
3829.72	0.00042478
3839.37	0.00041709
3849.01	0.00048554
3858.66	0.00044404
3868.31	0.00043901
3877.95	0.000561
3887.6	0.00050085
3897.25	0.00045897
3906.89	0.00045513
3916.54	0.0004828
3926.19	0.00048215
3935.83	0.00039807
3945.48	0.0005122
3955.13	0.0005244
3964.77	0.0005822
3974.42	0.0005634
3984.07	0.0006096
3993.71	0.0006102
