Infrared Spectrum: BENZOPHENONE, 4'-CHLORO-2-HYDROXY-4-METHOXY-
Formula: C14 H11 Cl O3
CAS: 85-28-9
State: SOLUTION (10% CCl4 FOR 3800-1330, 10% CS2 FOR 1330-450 CM^-^1)
Class: COBLENTZ III
Instrument: DOW KBr FOREPRISM-GRATING
Instrument parameters: BLAZED AT 3.5, 12.0, 20.0 MICRON AND CHANGED AT 5.0, 7.5, 14.9 MICRON
Sampling: TRANSMISSION
Path length: 0.011 CM, 0.011 CM
Resolution: 2
Origin: DOW CHEMICAL COMPANY
1/CM	TRANSMITTANCE
455	0.711
464	0.6572
473	0.7458
482	0.6842
491	0.5552
500	0.8493
509	0.8528
518	0.4342
527	0.8556
536	0.8906
545	0.7685
554	0.8225
563	0.8144
572	0.7671
581	0.774
590	0.8463
599	0.491
608	0.8562
617	0.8843
626	0.4786
635	0.5322
644	0.7106
653	0.8189
662	0.8581
671	0.8286
680	0.5828
689	0.7747
698	0.8439
707	0.8238
716	0.5746
725	0.8242
734	0.7776
743	0.7856
752	0.7739
761	0.6069
770	0.5031
779	0.361
788	0.3026
797	0.286
806	0.2648
815	0.31
824	0.3887
833	0.3376
842	0.0781
851	0.4855
860	0.5562
869	0.7122
878	0.7744
887	0.8148
896	0.8139
905	0.4204
914	0.2618
923	0.3053
932	0.7843
941	0.8398
950	0.6894
959	0.7194
968	0.4601
977	0.8181
986	0.9017
995	0.9021
1004	0.8535
1013	0.6568
1022	0.7046
1031	0.1535
1040	0.8306
1049	0.8725
1058	0.8788
1067	0.8614
1076	0.8162
1085	0.5309
1094	0.1994
1103	0.5001
1112	0.0199
1121	0.3422
1130	0.4429
1139	0.763
1148	0.7131
1157	0.6412
1166	0.0545
1175	0.3204
1184	0.6012
1193	0.4683
1202	0.2501
1211	0.0141
1220	0.5272
1229	0.3322
1238	0.3709
1247	0.2732
1256	0.0065
1265	0.0051
1274	0.0416
1283	0.0235
1292	0.4184
1301	0.3318
1310	0.3662
1319	0.4706
1328	0.3494
1337	0.1081
1346	0.0171
1355	0.1831
1364	0.2516
1373	0.1401
1382	0.2681
1391	0.4915
1400	0.2502
1409	0.5568
1418	0.6252
1427	0.6064
1436	0.6352
1445	0.1571
1454	0.5109
1463	0.343
1472	0.5687
1481	0.4732
1490	0.1284
1499	0.2754
1508	0.0953
1517	0.2567
1526	0.3505
1535	0.345
1544	0.2931
1553	0.2391
1562	0.1695
1571	0.0679
1580	0.0481
1589	0.03
1598	0.0216
1607	0.0128
1616	0.0093
1625	0.008
1634	0.0153
1643	0.1861
1652	0.4474
1661	0.597
1670	0.6699
1679	0.7286
1688	0.7768
1697	0.8145
1706	0.8338
1715	0.8377
1724	0.8468
1733	0.8607
1742	0.8604
1751	0.8695
1760	0.8617
1769	0.8718
1778	0.8659
1787	0.8516
1796	0.8524
1805	0.8616
1814	0.8651
1823	0.8603
1832	0.8513
1841	0.852
1850	0.8671
1859	0.8713
1868	0.8799
1877	0.8817
1886	0.874
1895	0.8552
1904	0.8332
1913	0.8281
1922	0.8492
1931	0.8599
1940	0.8524
1949	0.8802
1958	0.8862
1967	0.8812
1976	0.8795
1985	0.8762
1994	0.8727
2003	0.8699
2012	0.8774
2021	0.8838
2030	0.8791
2039	0.8733
2048	0.8597
2057	0.8555
2066	0.8744
2075	0.8763
2084	0.8764
2093	0.8839
2102	0.8871
2111	0.8873
2120	0.8866
2129	0.8848
2138	0.8844
2147	0.8873
2156	0.8886
2165	0.8851
2174	0.8804
2183	0.8818
2192	0.8855
2201	0.8852
2210	0.8841
2219	0.8823
2228	0.8817
2237	0.8812
2246	0.8795
2255	0.8764
2264	0.8724
2273	0.864
2282	0.8541
2291	0.8528
2300	0.86
2309	0.8616
2318	0.8621
2327	0.8618
2336	0.8606
2345	0.8588
2354	0.8571
2363	0.8577
2372	0.8631
2381	0.8649
2390	0.8594
2399	0.8581
2408	0.8554
2417	0.8531
2426	0.854
2435	0.8573
2444	0.8592
2453	0.8554
2462	0.8499
2471	0.8483
2480	0.8553
2489	0.8554
2498	0.8511
2507	0.8481
2516	0.8489
2525	0.8525
2534	0.8518
2543	0.8448
2552	0.8343
2561	0.8288
2570	0.8253
2579	0.8225
2588	0.8192
2597	0.8095
2606	0.7981
2615	0.7868
2624	0.7741
2633	0.775
2642	0.7838
2651	0.8024
2660	0.8046
2669	0.8017
2678	0.7989
2687	0.7917
2696	0.7812
2705	0.7736
2714	0.7721
2723	0.7718
2732	0.7691
2741	0.7672
2750	0.7695
2759	0.7712
2768	0.7725
2777	0.7761
2786	0.7806
2795	0.7801
2804	0.7738
2813	0.7635
2822	0.7505
2831	0.7349
2840	0.6667
2849	0.6166
2858	0.6788
2867	0.7019
2876	0.7085
2885	0.7065
2894	0.6728
2903	0.631
2912	0.621
2921	0.6508
2930	0.6491
2939	0.5629
2948	0.5876
2957	0.6076
2966	0.5251
2975	0.5484
2984	0.6258
2993	0.67
3002	0.6411
3011	0.5933
3020	0.6346
3029	0.6815
3038	0.6849
3047	0.6831
3056	0.6803
3065	0.6824
3074	0.6845
3083	0.6846
3092	0.6941
3101	0.7068
3110	0.7192
3119	0.7304
3128	0.7392
3137	0.7448
3146	0.7481
3155	0.7487
3164	0.7489
3173	0.7495
3182	0.7561
3191	0.7618
3200	0.7649
3209	0.7686
3218	0.7745
3227	0.7821
3236	0.7893
3245	0.7954
3254	0.8025
3263	0.811
3272	0.819
3281	0.8267
3290	0.8342
3299	0.8418
3308	0.8494
3317	0.8542
3326	0.8591
3335	0.863
3344	0.8668
3353	0.8704
3362	0.8737
3371	0.877
3380	0.8798
3389	0.8821
3398	0.8845
3407	0.8864
3416	0.8881
3425	0.8888
3434	0.8895
3443	0.8901
3452	0.8899
3461	0.8895
3470	0.8891
3479	0.8886
3488	0.8882
3497	0.8877
3506	0.8873
3515	0.887
3524	0.8867
3533	0.8864
3542	0.886
3551	0.8854
3560	0.8849
3569	0.884
3578	0.883
3587	0.8836
3596	0.8846
3605	0.8856
3614	0.8858
3623	0.8853
3632	0.8841
3641	0.8832
3650	0.8827
3659	0.8825
3668	0.8835
3677	0.8854
3686	0.8851
3695	0.8834
3704	0.883
3713	0.8832
3722	0.8848
3731	0.8861
3740	0.8871
3749	0.8868
3758	0.8854
3767	0.883
3776	0.88
3785	0.8753
3794	0.8717
