Infrared Spectrum: SALICYLIC ACID, 3-NITRO
Formula: C7 H5 N O5
CAS: 85-38-1
State: SOLID (KBr PELLET)
Melting point: 146-148 C
Class: COBLENTZ
Instrument: Not specified, most likely a prism, grating, or hybrid spectrometer.
Sampling: TRANSMISSION
Resolution: 4
Origin: TENNESSEE EASTMAN COMPANY, RESEARCH LABORATORIES
MICROMETERS	TRANSMITTANCE
2.034	0.847
2.07494	0.861
2.11587	0.866
2.15681	0.869
2.19774	0.883
2.23868	0.885
2.27961	0.892
2.32055	0.902
2.36148	0.909
2.40242	0.914
2.44335	0.919
2.48429	0.926
2.52522	0.928
2.56616	0.929
2.6071	0.936
2.64803	0.94
2.68897	0.941
2.7299	0.921
2.77084	0.818
2.81177	0.797
2.85271	0.789
2.89364	0.828
2.93458	0.839
2.97551	0.832
3.01645	0.823
3.05738	0.792
3.09832	0.756
3.13926	0.698
3.18019	0.601
3.22113	0.462
3.26206	0.347
3.303	0.239
3.34393	0.148
3.38487	0.136
3.4258	0.191
3.46674	0.231
3.50767	0.342
3.54861	0.433
3.58954	0.53
3.63048	0.59
3.67142	0.643
3.71235	0.667
3.75329	0.693
3.79422	0.715
3.83516	0.702
3.87609	0.71
3.91703	0.703
3.95796	0.722
3.9989	0.729
4.03983	0.739
4.08077	0.797
4.1217	0.75
4.16264	0.797
4.20358	0.847
4.24451	0.854
4.28545	0.864
4.32638	0.898
4.36732	0.934
4.40825	0.931
4.44919	0.941
4.49012	0.955
4.53106	0.964
4.57199	0.967
4.61293	0.97
4.65386	0.965
4.6948	0.969
4.73574	0.972
4.77667	0.97
4.81761	0.97
4.85854	0.974
4.89948	0.97
4.94041	0.962
4.98135	0.957
5.02228	0.97
5.06322	0.94
5.10415	0.953
5.14509	0.952
5.18602	0.945
5.22696	0.945
5.2679	0.945
5.30883	0.953
5.34977	0.97
5.3907	0.979
5.43164	0.977
5.47257	0.972
5.51351	0.958
5.55444	0.965
5.59538	0.962
5.63631	0.945
5.67725	0.934
5.71819	0.888
5.75912	0.866
5.80006	0.804
5.84099	0.643
5.88193	0.457
5.92286	0.226
5.9638	0.092
6.00473	0.219
6.04567	0.553
6.0866	0.659
6.12754	0.655
6.16847	0.566
6.20941	0.32
6.25035	0.315
6.29128	0.303
6.33222	0.375
6.37315	0.625
6.41409	0.655
6.45502	0.619
6.49596	0.342
6.53689	0.106
6.57783	0.07
6.61876	0.41
6.6597	0.642
6.70063	0.69
6.74157	0.671
6.78251	0.537
6.82344	0.426
6.86438	0.376
6.90531	0.321
6.94625	0.337
6.98718	0.386
7.02812	0.203
7.06905	0.366
7.10999	0.445
7.15092	0.508
7.19186	0.544
7.23279	0.542
7.27373	0.46
7.31467	0.308
7.3556	0.13
7.39654	0.047
7.43747	0.231
7.47841	0.316
7.51934	0.436
7.56028	0.587
7.60121	0.662
7.64215	0.666
7.68308	0.542
7.72402	0.368
7.76495	0.297
7.80589	0.171
7.84683	0.212
7.88776	0.361
7.9287	0.457
7.96963	0.582
8.01057	0.686
8.0515	0.676
8.09244	0.395
8.13337	0.282
8.17431	0.304
8.21524	0.301
8.25618	0.503
8.29711	0.582
8.33805	0.523
8.37899	0.28
8.41992	0.19
8.46086	0.398
8.50179	0.41
8.54273	0.316
8.58366	0.4
8.6246	0.657
8.66553	0.739
8.70647	0.537
8.7474	0.162
8.78834	0.428
8.82927	0.674
8.87021	0.791
8.91115	0.859
8.95208	0.905
8.99302	0.924
9.03395	0.892
9.07489	0.698
9.11582	0.753
9.15676	0.898
9.19769	0.921
9.23863	0.909
9.27956	0.868
9.3205	0.907
9.36143	0.945
9.40237	0.96
9.44331	0.976
9.48424	0.989
9.52518	0.982
9.56611	0.969
9.60705	0.97
9.64798	0.972
9.68892	0.97
9.72985	0.969
9.77079	0.965
9.81172	0.974
9.85266	0.982
9.89359	0.982
9.93453	0.981
9.97547	0.979
10.0164	0.984
10.0573	0.984
10.0983	0.981
10.1392	0.97
10.1801	0.972
10.2211	0.981
10.262	0.986
10.3029	0.986
10.3439	0.974
10.3848	0.974
10.4258	0.976
10.4667	0.969
10.5076	0.962
10.5486	0.96
10.5895	0.962
10.6304	0.96
10.6714	0.964
10.7123	0.965
10.7532	0.958
10.7942	0.946
10.8351	0.938
10.876	0.929
10.917	0.898
10.9579	0.806
10.9989	0.611
11.0398	0.321
11.0807	0.339
11.1217	0.592
11.1626	0.779
11.2035	0.835
11.2445	0.864
11.2854	0.883
11.3263	0.893
11.3673	0.907
11.4082	0.912
11.4491	0.917
11.4901	0.917
11.531	0.919
11.5719	0.922
11.6129	0.917
11.6538	0.9
11.6948	0.863
11.7357	0.777
11.7766	0.609
11.8176	0.57
11.8585	0.724
11.8994	0.787
11.9404	0.806
11.9813	0.837
12.0222	0.856
12.0632	0.844
12.1041	0.832
12.145	0.82
12.186	0.801
12.2269	0.789
12.2678	0.785
12.3088	0.784
12.3497	0.784
12.3907	0.782
12.4316	0.756
12.4725	0.722
12.5135	0.667
12.5544	0.602
12.5953	0.496
12.6363	0.368
12.6772	0.28
12.7181	0.25
12.7591	0.272
12.8	0.357
12.8409	0.467
12.8819	0.558
12.9228	0.65
12.9637	0.736
13.0047	0.809
13.0456	0.847
13.0866	0.842
13.1275	0.801
13.1684	0.708
13.2094	0.594
13.2503	0.5
13.2912	0.284
13.3322	0.169
13.3731	0.184
13.414	0.261
13.455	0.344
13.4959	0.421
13.5368	0.494
13.5778	0.563
13.6187	0.619
13.6597	0.671
13.7006	0.71
13.7415	0.741
13.7825	0.756
13.8234	0.772
13.8643	0.785
13.9053	0.801
13.9462	0.815
13.9871	0.828
14.0281	0.835
14.069	0.839
14.1099	0.837
14.1509	0.823
14.1918	0.801
14.2327	0.772
14.2737	0.743
14.3146	0.715
14.3556	0.712
14.3965	0.714
14.4374	0.732
14.4784	0.743
14.5193	0.732
14.5602	0.669
14.6012	0.582
14.6421	0.482
14.683	0.419
14.724	0.398
14.7649	0.421
14.8058	0.494
14.8468	0.611
14.8877	0.724
14.9286	0.779
14.9696	0.803
15.0105	0.813
15.0515	0.816
15.0924	0.82
15.1333	0.823
15.1743	0.823
15.2152	0.82
15.2561	0.815
15.2971	0.811
15.338	0.804
15.3789	0.801
15.4199	0.796
15.4608	0.78
15.5017	0.777
15.5427	0.77
15.5836	0.767
15.6245	0.761
15.6655	0.758
15.7064	0.753
15.7474	0.75
15.7883	0.748
15.8292	0.738
15.8702	0.729
15.9111	0.726
15.952	0.724
