Infrared Spectrum: 3-Acetamido-2,4,6-triiodobenzoic acid
Formula: C9 H6 I3 N O3
CAS: 85-36-9
State: SOLID (SPLIT MULL), FLUOROLUBE FOR 3800-1330 CM^-^1, NUJOL FOR 1330-460 CM^-^1
Class: COBLENTZ III
Instrument: DOW KBr FOREPRISM-GRATING
Instrument parameters: BLAZED AT 3.5, 12.0, 20.0 MICRON AND CHANGED AT 5.0, 7.5, 14.9 MICRON
Sampling: TRANSMISSION
Resolution: 2
Origin: DOW CHEMICAL COMPANY
1/CM	TRANSMITTANCE
3800	0.6349
3791	0.6382
3782	0.6406
3773	0.6422
3764	0.6443
3755	0.6457
3746	0.6471
3737	0.6489
3728	0.6501
3719	0.6521
3710	0.6544
3701	0.6554
3692	0.6521
3683	0.6493
3674	0.6571
3665	0.6568
3656	0.6569
3647	0.6578
3638	0.659
3629	0.6604
3620	0.6618
3611	0.6626
3602	0.6636
3593	0.6645
3584	0.6654
3575	0.6664
3566	0.6672
3557	0.6678
3548	0.6684
3539	0.669
3530	0.6699
3521	0.6708
3512	0.6717
3503	0.6734
3494	0.6751
3485	0.6769
3476	0.6789
3467	0.6806
3458	0.6821
3449	0.6834
3440	0.6841
3431	0.6841
3422	0.6837
3413	0.6828
3404	0.6825
3395	0.6849
3386	0.6872
3377	0.6884
3368	0.6891
3359	0.6895
3350	0.6901
3341	0.6867
3332	0.6847
3323	0.6828
3314	0.681
3305	0.6782
3296	0.6721
3287	0.6621
3278	0.6508
3269	0.6382
3260	0.621
3251	0.597
3242	0.5727
3233	0.541
3224	0.491
3215	0.4542
3206	0.4397
3197	0.4584
3188	0.4803
3179	0.5046
3170	0.5226
3161	0.5335
3152	0.5424
3143	0.5528
3134	0.5662
3125	0.58
3116	0.5937
3107	0.6035
3098	0.6062
3089	0.6045
3080	0.5965
3071	0.5912
3062	0.5795
3053	0.5616
3044	0.5462
3035	0.5374
3026	0.5384
3017	0.5527
3008	0.5651
2999	0.5743
2990	0.5795
2981	0.5824
2972	0.5841
2963	0.5873
2954	0.5919
2945	0.5958
2936	0.5998
2927	0.6039
2918	0.6083
2909	0.6145
2900	0.6208
2891	0.627
2882	0.6335
2873	0.6383
2864	0.6418
2855	0.6437
2846	0.6451
2837	0.6465
2828	0.6487
2819	0.6511
2810	0.655
2801	0.6601
2792	0.665
2783	0.6674
2774	0.668
2765	0.6675
2756	0.6675
2747	0.6678
2738	0.6671
2729	0.6668
2720	0.6665
2711	0.6653
2702	0.6633
2693	0.6621
2684	0.6595
2675	0.6568
2666	0.6539
2657	0.6496
2648	0.6451
2639	0.6417
2630	0.6377
2621	0.636
2612	0.6342
2603	0.6322
2594	0.6312
2585	0.6307
2576	0.6312
2567	0.6319
2558	0.633
2549	0.634
2540	0.6334
2531	0.6317
2522	0.6289
2513	0.6246
2504	0.6205
2495	0.6182
2486	0.6159
2477	0.6136
2468	0.611
2459	0.6081
2450	0.605
2441	0.6035
2432	0.6038
2423	0.604
2414	0.6047
2405	0.607
2396	0.6116
2387	0.6172
2378	0.623
2369	0.6225
2360	0.622
2351	0.6215
2342	0.6248
2333	0.629
2324	0.6353
2315	0.6411
2306	0.6458
2297	0.6505
2288	0.6551
2279	0.6605
2270	0.666
2261	0.6718
2252	0.6784
2243	0.6857
2234	0.6931
2225	0.7006
2216	0.708
2207	0.7125
2198	0.7169
2189	0.7218
2180	0.7271
2171	0.7334
2162	0.7403
2153	0.7484
2144	0.7537
2135	0.755
2126	0.7569
2117	0.7598
2108	0.7633
2099	0.7678
2090	0.7718
2081	0.7755
2072	0.7787
2063	0.7818
2054	0.7842
2045	0.7865
2036	0.7898
2027	0.7918
2018	0.7921
2009	0.7911
2000	0.7907
1991	0.79
1982	0.7878
1973	0.7846
1964	0.7787
1955	0.7715
1946	0.764
1937	0.7561
1928	0.7478
1919	0.7414
1910	0.7403
1901	0.7435
1892	0.7464
1883	0.7486
1874	0.7522
1865	0.7578
1856	0.7696
1847	0.7848
1838	0.8019
1829	0.8212
1820	0.8351
1811	0.8442
1802	0.8513
1793	0.8594
1784	0.867
1775	0.8736
1766	0.875
1757	0.8618
1748	0.8292
1739	0.7865
1730	0.6892
1721	0.3857
1712	0.3168
1703	0.5296
1694	0.7017
1685	0.7622
1676	0.7576
1667	0.7111
1658	0.6525
1649	0.5604
1640	0.4371
1631	0.2641
1622	0.1362
1613	0.2332
1604	0.3245
1595	0.423
1586	0.5125
1577	0.5583
1568	0.5062
1559	0.32
1550	0.328
1541	0.4215
1532	0.2925
1523	0.3138
1514	0.3405
1505	0.4429
1496	0.515
1487	0.5551
1478	0.5843
1469	0.5912
1460	0.5701
1451	0.4791
1442	0.3912
1433	0.2655
1424	0.2109
1415	0.1812
1406	0.2491
1397	0.2869
1388	0.3169
1379	0.3329
1370	0.3098
1361	0.3122
1352	0.377
1343	0.4517
1334	0.496
1325	0.5233
1316	0.4621
1307	0.4183
1298	0.3714
1289	0.2819
1280	0.4767
1271	0.5936
1262	0.6493
1253	0.6664
1244	0.694
1235	0.6985
1226	0.6377
1217	0.7521
1208	0.7796
1199	0.7989
1190	0.8065
1181	0.7847
1172	0.6168
1163	0.6567
1154	0.7687
1145	0.7981
1136	0.8171
1127	0.8338
1118	0.8405
1109	0.8401
1100	0.8377
1091	0.834
1082	0.8296
1073	0.8238
1064	0.8171
1055	0.8028
1046	0.718
1037	0.755
1028	0.7425
1019	0.706
1010	0.7569
1001	0.7732
992	0.7486
983	0.6607
974	0.5739
965	0.7257
956	0.761
947	0.7057
938	0.7746
929	0.8119
920	0.8323
911	0.8465
902	0.855
893	0.8568
884	0.8605
875	0.8603
866	0.7208
857	0.8525
848	0.8658
839	0.8711
830	0.8755
821	0.8778
812	0.8762
803	0.8596
794	0.7287
785	0.8485
776	0.8288
767	0.7833
758	0.8325
749	0.8072
740	0.7814
731	0.7576
722	0.5323
713	0.617
704	0.5749
695	0.6741
686	0.7522
677	0.8004
668	0.8281
659	0.8498
650	0.8627
641	0.8716
632	0.86
623	0.8621
614	0.7005
605	0.83
596	0.8436
587	0.6249
578	0.8621
569	0.8762
560	0.8748
551	0.8668
542	0.8333
533	0.7606
524	0.8456
515	0.8508
506	0.8413
497	0.847
488	0.8453
479	0.8391
470	0.8278
461	0.8087
