Infrared Spectrum: 1-Naphthalene sulfonylchloride
Formula: C 10 H 7 Cl O 2 S
CAS: 85-46-1
State: gas
Origin: EPA-IR VAPOR PHASE LIBRARY
1/CM	ABSORBANCE
549.8	0.0188653
559.445	0.0533453
569.09	0.0574253
578.734	0.0907553
588.379	0.0635553
598.024	0.0131553
607.669	0.0061153
617.313	0.0131953
626.958	0.0276553
636.603	0.0091253
646.248	0.0027353
655.893	0.0034953
665.537	0.0161153
675.182	0.0314353
684.827	0.0096953
694.472	0.0021653
704.116	0.0009128
713.761	0.0012253
723.406	0.0028953
733.051	0.0053753
742.695	0.0042353
752.34	0.0110853
761.985	0.0403853
771.63	0.0290353
781.275	0.0074353
790.919	0.0169753
800.564	0.0277453
810.209	0.0117053
819.854	0.0086753
829.498	0.0105353
839.143	0.0039253
848.788	0.0016453
858.433	0.0014653
868.078	0.0016353
877.722	0.0010702
887.367	0.0006967
897.012	0.0004949
906.657	0.0003714
916.301	0.0001383
925.946	0.0005036
935.591	0.0006505
945.236	0.0009897
954.88	0.0019853
964.525	0.0033553
974.17	0.0045353
983.815	0.0019153
993.46	0.0008763
1003.1	0.000664
1012.75	0.0011953
1022.39	0.0032753
1032.04	0.0024653
1041.68	0.0013153
1051.33	0.0008677
1060.97	0.0013453
1070.62	0.0017153
1080.26	0.0012453
1089.91	0.0013553
1099.55	0.0014953
1109.2	0.0015153
1118.84	0.0024153
1128.49	0.0070653
1138.13	0.0149653
1147.78	0.0132953
1157.42	0.0138053
1167.07	0.0241953
1176.71	0.0631553
1186.36	0.0802553
1196	0.0377253
1205.64	0.0329053
1215.29	0.0193453
1224.93	0.0072353
1234.58	0.0033253
1244.22	0.0029553
1253.87	0.0031353
1263.51	0.0032353
1273.16	0.0020653
1282.8	0.0011953
1292.45	0.0008672
1302.09	0.0009051
1311.74	0.0013453
1321.38	0.0019153
1331.03	0.0035253
1340.67	0.0074553
1350.32	0.0108853
1359.96	0.0122653
1369.61	0.0132053
1379.25	0.0281753
1388.9	0.0863553
1398.54	0.0819953
1408.18	0.0135253
1417.83	0.0035853
1427.47	0.0030353
1437.12	0.0032453
1446.76	0.0026353
1456.41	0.0022753
1466.05	0.0014953
1475.7	0.0008485
1485.34	0.0015353
1494.99	0.0054453
1504.63	0.0119153
1514.28	0.0079253
1523.92	0.0022953
1533.57	0.0013653
1543.21	0.0005823
1552.86	0.000649
1562.5	0.0012753
1572.15	0.0010853
1581.79	0.0012353
1591.44	0.0029453
1601.08	0.0020253
1610.73	0.0011953
1620.37	0.0020053
1630.01	0.0015053
1639.66	0.0007728
1649.3	0.0009529
1658.95	0.0011553
1668.59	0.0007239
1678.24	0.0006834
1687.88	0.0010853
1697.53	0.0012253
1707.17	0.0015953
1716.82	0.0023053
1726.46	0.0018753
1736.11	0.0009719
1745.75	0.0008959
1755.4	0.0009367
1765.04	0.0010216
1774.69	0.0010508
1784.33	0.0010386
1793.98	0.0008772
1803.62	0.0011953
1813.27	0.0015353
1822.91	0.0011853
1832.55	0.0016153
1842.2	0.0020553
1851.84	0.0013453
1861.49	0.0007484
1871.13	0.0009331
1880.78	0.0012653
1890.42	0.0015953
1900.07	0.0014853
1909.71	0.0011153
1919.36	0.0010953
1929	0.0019453
1938.65	0.0021553
1948.29	0.0020353
1957.94	0.0019353
1967.58	0.0010753
1977.23	0.0005752
1986.87	0.0004239
1996.52	0.0004509
2006.16	0.0004183
2015.81	0.0004596
2025.45	0.0004874
2035.1	0.0005689
2044.74	0.0004922
2054.38	0.00056
2064.03	0.0005271
2073.67	0.0003976
2083.32	0.0004916
2092.96	0.0004368
2102.61	0.00061
2112.25	0.0006408
2121.9	0.0004908
2131.54	0.0004445
2141.19	0.0005326
2150.83	0.0004629
2160.48	0.0005304
2170.12	0.0005712
2179.77	0.0004981
2189.41	0.0003191
2199.06	0.0004163
2208.7	0.0003598
2218.35	0.0004189
2227.99	0.0004707
2237.64	0.0005931
2247.28	0.0005081
2256.92	0.0005212
2266.57	0.0004856
2276.21	0.000471
2285.86	0.0006672
2295.5	0.0006081
2305.15	0.0006925
2314.79	0.0008076
2324.44	0.0006474
2334.08	0.0007462
2343.73	0.0008269
2353.37	0.0008729
2363.02	0.0009783
2372.66	0.0008006
2382.31	0.0006009
2391.95	0.0005599
2401.6	0.0005321
2411.24	0.0005683
2420.89	0.0005488
2430.53	0.0005469
2440.18	0.0005851
2449.82	0.0005405
2459.47	0.0005796
2469.11	0.0006217
2478.75	0.0005783
2488.4	0.000612
2498.04	0.0005883
2507.69	0.0005902
2517.33	0.0005965
2526.98	0.0008182
2536.62	0.0008418
2546.27	0.0009375
2555.91	0.0008373
2565.56	0.0010653
2575.2	0.000804
2584.85	0.0006396
2594.49	0.0005282
2604.14	0.0004848
2613.78	0.0005083
2623.43	0.0003727
2633.07	0.0004582
2642.72	0.0003299
2652.36	0.0004903
2662.01	0.0004256
2671.65	0.0003895
2681.29	0.0005224
2690.94	0.0003889
2700.58	0.0005702
2710.23	0.0004824
2719.87	0.0003702
2729.52	0.000561
2739.16	0.000659
2748.81	0.0004503
2758.45	0.0006319
2768.1	0.0006689
2777.74	0.0003453
2787.39	0.0004992
2797.03	0.0005027
2806.68	0.0005504
2816.32	0.0007373
2825.97	0.0004698
2835.61	0.0004566
2845.26	0.0004642
2854.9	0.0004727
2864.55	0.0005035
2874.19	0.00072
2883.84	0.000688
2893.48	0.0006789
2903.12	0.0007136
2912.77	0.0006826
2922.41	0.0008498
2932.06	0.0007406
2941.7	0.000899
2951.35	0.0008486
2960.99	0.0009563
2970.64	0.0006655
2980.28	0.0007267
2989.93	0.0009895
2999.57	0.0013653
3009.22	0.0021753
3018.86	0.0023953
3028.51	0.0024753
3038.15	0.0031553
3047.8	0.0057453
3057.44	0.0119553
3067.09	0.0178153
3076.73	0.0115453
3086.38	0.0082753
3096.02	0.0061653
3105.67	0.0033153
3115.31	0.0021153
3124.95	0.0014453
3134.6	0.0012153
3144.24	0.0009617
3153.89	0.0007851
3163.53	0.0009246
3173.18	0.0008959
3182.82	0.0008486
3192.47	0.0006517
3202.11	0.0007353
3211.76	0.0005826
3221.4	0.0006099
3231.05	0.0007286
3240.69	0.0007069
3250.34	0.0004565
3259.98	0.0005114
3269.63	0.0004771
3279.27	0.0005725
3288.92	0.0006879
3298.56	0.0006933
3308.21	0.0006169
3317.85	0.0004509
3327.49	0.0004598
3337.14	0.0006523
3346.78	0.0006169
3356.43	0.0005692
3366.07	0.0005815
3375.72	0.0007243
3385.36	0.0004004
3395.01	0.0002765
3404.65	0.0003818
3414.3	0.0004784
3423.94	0.0005361
3433.59	0.0005044
3443.23	0.0006152
3452.88	0.0006325
3462.52	0.0005177
3472.17	0.0003193
3481.81	0.0004562
3491.46	0.0006045
3501.1	0.0005717
3510.75	0.0006469
3520.39	0.0005733
3530.04	0.0008059
3539.68	0.0005111
3549.32	0.0006437
3558.97	0.0007715
3568.61	0.000501
3578.26	0.0006293
3587.9	0.0008669
3597.55	0.0005692
3607.19	0.0005336
3616.84	0.0004602
3626.48	0.0005972
3636.13	0.000673
3645.77	0.000958
3655.42	0.0006506
3665.06	0.0005603
3674.71	0.0008668
3684.35	0.0006032
3694	0.0007214
3703.64	0.0007958
3713.29	0.0007164
3722.93	0.000943
3732.58	0.0005824
3742.22	0.0008298
3751.86	0.0006975
3761.51	0.0009515
3771.15	0.0007117
3780.8	0.0006843
3790.44	0.0006434
3800.09	0.000771
3809.73	0.0009156
3819.38	0.0008389
3829.02	0.0004933
3838.67	0.0009892
3848.31	0.0008585
3857.96	0.0010068
3867.6	0.0011153
3877.25	0.0011453
3886.89	0.0008256
3896.54	0.0008524
3906.18	0.0009013
3915.83	0.0007825
3925.47	0.0007871
3935.12	0.0010745
3944.76	0.000772
3954.41	0.0007244
3964.05	0.0009559
3973.69	0.0009203
3983.34	0.0011553
3992.98	0.0008235
