Infrared Spectrum: 1,2-CYCLOHEXANE DICARBOXYLIC ANHYDRIDE
Formula: C8 H10 O3
CAS: 85-42-7
Class: COBLENTZ
Instrument: Not specified, most likely a prism, grating, or hybrid spectrometer.
Sampling: TRANSMISSION
Path length: SMEAR
Resolution: 4
Origin: TENNESSEE EASTMAN COMPANY, RESEARCH LABORATORIES
MICROMETERS	TRANSMITTANCE
2.013	0.932
2.05278	0.93
2.09255	0.93
2.13233	0.93
2.17211	0.93
2.21189	0.93
2.25166	0.925
2.29144	0.917
2.33122	0.915
2.37099	0.915
2.41077	0.917
2.45055	0.919
2.49033	0.919
2.5301	0.917
2.56988	0.919
2.60966	0.919
2.64943	0.92
2.68921	0.92
2.72899	0.851
2.76877	0.781
2.80854	0.765
2.84832	0.743
2.8881	0.732
2.92787	0.73
2.96765	0.74
3.00743	0.761
3.04721	0.786
3.08698	0.806
3.12676	0.831
3.16654	0.861
3.20631	0.877
3.24609	0.879
3.28587	0.844
3.32565	0.755
3.36542	0.378
3.4052	0.297
3.44498	0.467
3.48475	0.375
3.52453	0.778
3.56431	0.831
3.60408	0.877
3.64386	0.902
3.68364	0.922
3.72342	0.927
3.76319	0.927
3.80297	0.93
3.84275	0.953
3.88252	0.961
3.9223	0.965
3.96208	0.965
4.00186	0.973
4.04163	0.973
4.08141	0.975
4.12119	0.978
4.16096	0.978
4.20074	0.98
4.24052	0.98
4.2803	0.968
4.32007	0.968
4.35985	0.973
4.39963	0.978
4.4394	0.973
4.47918	0.971
4.51896	0.965
4.55874	0.95
4.59851	0.955
4.63829	0.942
4.67807	0.922
4.71784	0.919
4.75762	0.943
4.7974	0.95
4.83718	0.96
4.87695	0.961
4.91673	0.955
4.95651	0.95
4.99628	0.952
5.03606	0.95
5.07584	0.948
5.11562	0.93
5.15539	0.9
5.19517	0.892
5.23495	0.852
5.27472	0.709
5.3145	0.423
5.35428	0.191
5.39406	0.165
5.43383	0.325
5.47361	0.319
5.51339	0.188
5.55316	0.061
5.59294	0.019
5.63272	0.034
5.6725	0.18
5.71227	0.396
5.75205	0.591
5.79183	0.733
5.8316	0.788
5.87138	0.834
5.91116	0.867
5.95094	0.867
5.99071	0.851
6.03049	0.899
6.07027	0.902
6.11004	0.909
6.14982	0.912
6.1896	0.919
6.22938	0.922
6.26915	0.932
6.30893	0.95
6.34871	0.952
6.38848	0.953
6.42826	0.95
6.46804	0.942
6.50781	0.925
6.54759	0.922
6.58737	0.907
6.62715	0.877
6.66692	0.846
6.7067	0.786
6.74648	0.75
6.78625	0.641
6.82603	0.505
6.86581	0.355
6.90559	0.484
6.94536	0.666
6.98514	0.737
7.02492	0.761
7.06469	0.783
7.10447	0.788
7.14425	0.788
7.18403	0.786
7.2238	0.781
7.26358	0.766
7.30336	0.71
7.34313	0.613
7.38291	0.639
7.42269	0.656
7.46247	0.666
7.50224	0.502
7.54202	0.446
7.5818	0.606
7.62157	0.634
7.66135	0.6
7.70113	0.626
7.74091	0.68
7.78068	0.679
7.82046	0.619
7.86024	0.557
7.90001	0.566
7.93979	0.538
7.97957	0.451
8.01935	0.38
8.05912	0.292
8.0989	0.209
8.13868	0.183
8.17845	0.152
8.21823	0.148
8.25801	0.19
8.29779	0.335
8.33756	0.476
8.37734	0.517
8.41712	0.403
8.45689	0.413
8.49667	0.6
8.53645	0.623
8.57623	0.634
8.616	0.644
8.65578	0.606
8.69556	0.525
8.73533	0.557
8.77511	0.604
8.81489	0.611
8.85467	0.601
8.89444	0.58
8.93422	0.532
8.974	0.423
9.01377	0.256
9.05355	0.186
9.09333	0.347
9.13311	0.5
9.17288	0.537
9.21266	0.537
9.25244	0.54
9.29221	0.557
9.33199	0.558
9.37177	0.547
9.41155	0.474
9.45132	0.456
9.4911	0.489
9.53088	0.504
9.57065	0.52
9.61043	0.409
9.65021	0.214
9.68998	0.138
9.72976	0.244
9.76954	0.467
9.80932	0.561
9.84909	0.598
9.88887	0.601
9.92865	0.566
9.96842	0.545
10.0082	0.588
10.048	0.591
10.0878	0.515
10.1275	0.416
10.1673	0.365
10.2071	0.277
10.2469	0.155
10.2866	0.123
10.3264	0.221
10.3662	0.4
10.406	0.55
10.4458	0.611
10.4855	0.629
10.5253	0.634
10.5651	0.626
10.6049	0.553
10.6446	0.426
10.6844	0.29
10.7242	0.285
10.764	0.337
10.8037	0.32
10.8435	0.259
10.8833	0.165
10.9231	0.097
10.9629	0.062
11.0026	0.054
11.0424	0.051
11.0822	0.051
11.122	0.072
11.1617	0.119
11.2015	0.14
11.2413	0.148
11.2811	0.216
11.3208	0.289
11.3606	0.373
11.4004	0.484
11.4402	0.563
11.48	0.609
11.5197	0.636
11.5595	0.652
11.5993	0.659
11.6391	0.662
11.6788	0.652
11.7186	0.578
11.7584	0.517
11.7982	0.598
11.8379	0.666
11.8777	0.694
11.9175	0.714
11.9573	0.728
11.9971	0.745
12.0368	0.761
12.0766	0.783
12.1164	0.795
12.1562	0.806
12.1959	0.818
12.2357	0.821
12.2755	0.821
12.3153	0.795
12.3551	0.697
12.3948	0.573
12.4346	0.568
12.4744	0.692
12.5142	0.761
12.5539	0.78
12.5937	0.773
12.6335	0.74
12.6733	0.712
12.713	0.651
12.7528	0.598
12.7926	0.638
12.8324	0.719
12.8722	0.757
12.9119	0.766
12.9517	0.765
12.9915	0.752
13.0313	0.742
13.071	0.73
13.1108	0.719
13.1506	0.707
13.1904	0.682
13.2301	0.638
13.2699	0.53
13.3097	0.404
13.3495	0.357
13.3893	0.418
13.429	0.548
13.4688	0.626
13.5086	0.671
13.5484	0.702
13.5881	0.732
13.6279	0.745
13.6677	0.752
13.7075	0.755
13.7473	0.755
13.787	0.753
13.8268	0.727
13.8666	0.695
13.9064	0.647
13.9461	0.596
13.9859	0.552
14.0257	0.52
14.0655	0.51
14.1052	0.515
14.145	0.542
14.1848	0.576
14.2246	0.611
14.2644	0.638
14.3041	0.661
14.3439	0.674
14.3837	0.684
14.4235	0.694
14.4632	0.699
14.503	0.702
14.5428	0.704
14.5826	0.707
14.6223	0.707
14.6621	0.71
14.7019	0.71
14.7417	0.712
14.7815	0.714
14.8212	0.715
14.861	0.715
14.9008	0.715
14.9406	0.717
14.9803	0.719
15.0201	0.719
15.0599	0.717
15.0997	0.715
15.1395	0.715
15.1792	0.715
15.219	0.714
15.2588	0.71
15.2986	0.705
15.3383	0.704
15.3781	0.7
15.4179	0.697
15.4577	0.692
15.4974	0.689
15.5372	0.687
15.577	0.682
15.6168	0.684
15.6566	0.682
15.6963	0.68
15.7361	0.68
15.7759	0.68
15.8157	0.68
15.8554	0.68
15.8952	0.68
15.935	0.68
15.9748	0.68
