Infrared Spectrum: Phthalimide
Formula: C 8 H 5 N O 2
CAS: 85-41-6
State: gas
Origin: EPA-IR VAPOR PHASE LIBRARY
1/CM	ABSORBANCE
549.8	0.008588
559.445	0.005178
569.09	0.003488
578.734	0.002148
588.379	0.0008663
598.024	0.0005434
607.669	0.0007852
617.313	0.000451
626.958	0.000771
636.603	0.001288
646.248	0.0011325
655.893	0.0006325
665.537	0.0004925
675.182	0.00020773
684.827	0.0009414
694.472	0.002968
704.116	0.007248
713.761	0.016388
723.406	0.007508
733.051	0.002728
742.695	0.001538
752.34	0.0010407
761.985	0.00082
771.63	0.0010107
781.275	0.0011191
790.919	0.001378
800.564	0.0005559
810.209	0.00027397
819.854	0.00023288
829.498	0.00028675
839.143	0.00027438
848.788	9.4e-05
858.433	0.0001427
868.078	0.00024766
877.722	0.00022386
887.367	0.00024654
897.012	0.00024316
906.657	0.0003651
916.301	0.0003448
925.946	0.0002998
935.591	0.000508
945.236	0.0005525
954.88	0.0004517
964.525	0.0007376
974.17	0.0008196
983.815	0.001398
993.46	0.002398
1003.1	0.004698
1012.75	0.008238
1022.39	0.012808
1032.04	0.011938
1041.68	0.004608
1051.33	0.002328
1060.97	0.003018
1070.62	0.003388
1080.26	0.003908
1089.91	0.003288
1099.55	0.002348
1109.2	0.001478
1118.84	0.000756
1128.49	0.0008388
1138.13	0.001198
1147.78	0.0006153
1157.42	0.0010419
1167.07	0.001488
1176.71	0.002578
1186.36	0.002378
1196	0.001438
1205.64	0.0009777
1215.29	0.0009956
1224.93	0.0008296
1234.58	0.001478
1244.22	0.002088
1253.87	0.002828
1263.51	0.003338
1273.16	0.004808
1282.8	0.009328
1292.45	0.013948
1302.09	0.011568
1311.74	0.004588
1321.38	0.003008
1331.03	0.004638
1340.67	0.007828
1350.32	0.010408
1359.96	0.010328
1369.61	0.007618
1379.25	0.003918
1388.9	0.001788
1398.54	0.0008681
1408.18	0.0008497
1417.83	0.0009645
1427.47	0.000778
1437.12	0.0005565
1446.76	0.0006883
1456.41	0.0010217
1466.05	0.001578
1475.7	0.001418
1485.34	0.000628
1494.99	0.0003367
1504.63	0.0003576
1514.28	0.0004565
1523.92	0.0004996
1533.57	0.0005423
1543.21	0.000475
1552.86	0.0004948
1562.5	0.0004463
1572.15	0.000564
1581.79	0.0008163
1591.44	0.0008852
1601.08	0.0011747
1610.73	0.001358
1620.37	0.0009728
1630.01	0.0008032
1639.66	0.0006369
1649.3	0.0008976
1658.95	0.0010243
1668.59	0.0010505
1678.24	0.0007843
1687.88	0.0007295
1697.53	0.0009897
1707.17	0.001618
1716.82	0.002918
1726.46	0.004878
1736.11	0.008068
1745.75	0.021768
1755.4	0.070308
1765.04	0.082638
1774.69	0.051748
1784.33	0.019428
1793.98	0.017818
1803.62	0.010788
1813.27	0.004668
1822.91	0.003908
1832.55	0.002748
1842.2	0.001858
1851.84	0.001308
1861.49	0.0010352
1871.13	0.0010601
1880.78	0.0009945
1890.42	0.0008553
1900.07	0.0007215
1909.71	0.0007239
1919.36	0.0006351
1929	0.0007165
1938.65	0.0008307
1948.29	0.0006531
1957.94	0.0005368
1967.58	0.0005281
1977.23	0.0005808
1986.87	0.0003741
1996.52	0.0003394
2006.16	0.0003462
2015.81	0.0003274
2025.45	0.0002793
2035.1	0.0002631
2044.74	0.0002463
2054.38	0.0002931
2064.03	0.00023389
2073.67	0.000298
2083.32	0.00028601
2092.96	0.0003968
2102.61	0.0003482
2112.25	0.0003103
2121.9	0.00026805
2131.54	0.00027374
2141.19	0.0003826
2150.83	0.0002933
2160.48	0.0003778
2170.12	0.0003234
2179.77	0.00024719
2189.41	0.00023103
2199.06	0.00023441
2208.7	0.00025401
2218.35	0.00025232
2227.99	0.0001563
2237.64	0.0003213
2247.28	0.00025316
2256.92	0.0003761
2266.57	0.0003116
2276.21	0.0003831
2285.86	0.0004107
2295.5	0.0004034
2305.15	0.0004622
2314.79	0.0004547
2324.44	0.0004552
2334.08	0.0003666
2343.73	0.000341
2353.37	0.0003274
2363.02	0.0003669
2372.66	0.0004287
2382.31	0.0004277
2391.95	0.0004128
2401.6	0.0003699
2411.24	0.0003634
2420.89	0.0003257
2430.53	0.0003499
2440.18	0.00024
2449.82	0.0002664
2459.47	0.00024698
2469.11	0.000196966
2478.75	0.00022229
2488.4	0.00023068
2498.04	0.00018408
2507.69	0.0003319
2517.33	0.00021843
2526.98	0.0003176
2536.62	0.00023817
2546.27	0.00027825
2555.91	0.00022458
2565.56	0.00023986
2575.2	0.00025409
2584.85	0.0002918
2594.49	0.00024
2604.14	0.00025091
2613.78	0.00028661
2623.43	0.00025675
2633.07	0.0003352
2642.72	0.00024782
2652.36	0.0003397
2662.01	0.00025376
2671.65	0.00028142
2681.29	0.0003253
2690.94	0.0003308
2700.58	0.00023447
2710.23	0.00023811
2719.87	0.0002925
2729.52	0.00023166
2739.16	0.00027713
2748.81	0.000197422
2758.45	0.00023896
2768.1	0.000291
2777.74	0.00022192
2787.39	0.00028016
2797.03	0.00028432
2806.68	0.00023407
2816.32	0.00026096
2825.97	0.00017816
2835.61	0.0003004
2845.26	0.00021049
2854.9	0.0001598
2864.55	0.0002885
2874.19	0.00027787
2883.84	0.00028026
2893.48	0.0004023
2903.12	0.0003559
2912.77	0.00027282
2922.41	0.0003089
2932.06	0.00027885
2941.7	0.0003509
2951.35	0.000403
2960.99	0.0004292
2970.64	0.00024851
2980.28	0.0004217
2989.93	0.00021281
2999.57	0.00024331
3009.22	0.00027519
3018.86	0.0002623
3028.51	0.00024047
3038.15	0.0006695
3047.8	0.0007745
3057.44	0.0010149
3067.09	0.0011516
3076.73	0.001378
3086.38	0.001618
3096.02	0.001408
3105.67	0.0007716
3115.31	0.0004975
3124.95	0.00026053
3134.6	0.0001741
3144.24	0.0003356
3153.89	0.000187529
3163.53	0.00022433
3173.18	0.00027681
3182.82	0.0001612
3192.47	0.000195597
3202.11	0.0003099
3211.76	0.000321
3221.4	1e-06
3231.05	0.00022111
3240.69	0.00021361
3250.34	0.00022666
3259.98	0.0001723
3269.63	0.0003176
3279.27	0.00021696
3288.92	0.00025685
3298.56	0.0003287
3308.21	0.00023205
3317.85	0.00018325
3327.49	0.00018024
3337.14	0.000194401
3346.78	0.000143
3356.43	9.04e-05
3366.07	0.0003062
3375.72	0.000191495
3385.36	0.00022226
3395.01	0.00021477
3404.65	0.0002886
3414.3	0.0002901
3423.94	0.00025451
3433.59	0.0006425
3443.23	0.001288
3452.88	0.003168
3462.52	0.006808
3472.17	0.010268
3481.81	0.007698
3491.46	0.002388
3501.1	0.0008278
3510.75	0.0009798
3520.39	0.0010922
3530.04	0.0010783
3539.68	0.001368
3549.32	0.0011299
3558.97	0.0005915
3568.61	0.0004051
3578.26	0.00023214
3587.9	0.00026961
3597.55	0.0004046
3607.19	0.00023138
3616.84	0.00023868
3626.48	0.0002774
3636.13	0.0003343
3645.77	0.00026723
3655.42	0.0001335
3665.06	0.000188858
3674.71	0.0003683
3684.35	0.0004449
3694	0.00025486
3703.64	0.0003028
3713.29	0.0003074
3722.93	0.00023306
3732.58	0.00021296
3742.22	0.000298
3751.86	0.0003391
3761.51	0.0003992
3771.15	0.0003536
3780.8	0.0004658
3790.44	0.0002994
3800.09	0.000188787
3809.73	0.000188665
3819.38	0.0001469
3829.02	0.000196474
3838.67	0.0003276
3848.31	0.00023436
3857.96	0.0001695
3867.6	0.0003125
3877.25	7.7e-05
3886.89	0.00020718
3896.54	0.00025325
3906.18	0.000190605
3915.83	0.00023586
3925.47	0.000325
3935.12	0.0003487
3944.76	0.0004104
3954.41	0.0004288
3964.05	0.0003638
3973.69	5.9e-05
3983.34	0.00024555
3992.98	0.0001294
