Infrared Spectrum: 2-Benzoylbenzoic acid
Formula: C 14 H 10 O 3
CAS: 85-52-9
State: gas
Instrument: HP-GC/MS/IRD
Origin: NIST Mass Spectrometry Data Center
1/CM	ABSORBANCE
550	0.0021735
562	0.002828
574	0.002828
586	0.001295
598	0.000672
610	0.0006825
622	0.0023275
634	0.0079275
646	0.004592
658	0.001295
670	0.0013965
682	0.00252
694	0.005789
706	0.009709
718	0.0104265
730	0.0047845
742	0.003311
754	0.0056875
766	0.004018
778	0.002247
790	0.0010185
802	0.000427
814	0.000406
826	0.0003115
838	0.000112
850	2.1e-05
862	0.000126
874	0.0006195
886	0.0004445
898	0.0005145
910	0.0013965
922	0.005516
934	0.009282
946	0.002366
958	0.0015225
970	0.0011375
982	0.0007105
994	0.000609
1006	0.0008015
1018	0.0010185
1030	0.0020195
1042	0.0030695
1054	0.006181
1066	0.0072975
1078	0.0052045
1090	0.005383
1102	0.0070175
1114	0.0057015
1126	0.0065415
1138	0.0036645
1150	0.0040705
1162	0.005194
1174	0.0095235
1186	0.0115185
1198	0.004823
1210	0.0029225
1222	0.002961
1234	0.004389
1246	0.007441
1258	0.013951
1270	0.0153405
1282	0.011354
1294	0.0076615
1306	0.0064295
1318	0.006195
1330	0.0049105
1342	0.006419
1354	0.0054915
1366	0.0037905
1378	0.0025585
1390	0.0011935
1402	0.0006545
1414	0.0005145
1426	0.000546
1438	0.0013055
1450	0.002954
1462	0.001106
1474	0.000826
1486	0.0008785
1498	0.0005915
1510	0.0003465
1522	0.0004375
1534	0.000567
1546	0.000763
1558	0.0010115
1570	0.0018935
1582	0.0024885
1594	0.0027965
1606	0.0021315
1618	0.001001
1630	0.00084
1642	0.000987
1654	0.001414
1666	0.002646
1678	0.0060935
1690	0.0137865
1702	0.0096705
1714	0.004494
1726	0.003605
1738	0.00532
1750	0.014735
1762	0.035
1774	0.0129535
1786	0.005369
1798	0.0041125
1810	0.0053025
1822	0.002604
1834	0.001288
1846	0.000665
1858	0.00049
1870	0.0003255
1882	0.0002975
1894	0.000357
1906	0.0003885
1918	0.000315
1930	0.000315
1942	0.0004025
1954	0.0004305
1966	0.0005005
1978	0.000231
1990	0.000105
2002	6.3e-05
2014	3.85e-05
2026	4.2e-05
2038	3.5e-05
2050	1.4e-05
2062	1.4e-05
2074	7e-06
2086	1.4e-05
2098	2.8e-05
2110	3.85e-05
2122	4.2e-05
2134	1.75e-05
2146	4.2e-05
2158	4.2e-05
2170	6.3e-05
2182	8.05e-05
2194	8.05e-05
2206	8.05e-05
2218	7e-05
2230	6.65e-05
2242	9.1e-05
2254	0.000119
2266	0.000105
2278	0.000133
2290	0.000196
2302	0.0002975
2314	0.0004585
2326	0.000581
2338	0.000539
2350	0.0004305
2362	0.0007
2374	0.0004865
2386	0.0001645
2398	0.000105
2410	0.0001015
2422	0.0001155
2434	8.75e-05
2446	5.25e-05
2458	3.15e-05
2470	3.15e-05
2482	2.8e-05
2494	3.85e-05
2506	4.55e-05
2518	1.05e-05
2530	4.9e-05
2542	4.2e-05
2554	5.6e-05
2566	1.05e-05
2578	2.1e-05
2590	6.65e-05
2602	5.6e-05
2614	6.65e-05
2626	6.3e-05
2638	5.6e-05
2650	3.85e-05
2662	5.6e-05
2674	3.5e-05
2686	5.25e-05
2698	2.8e-05
2710	2.45e-05
2722	5.6e-05
2734	7e-05
2746	8.75e-05
2758	8.4e-05
2770	5.95e-05
2782	9.8e-05
2794	9.8e-05
2806	0.0001085
2818	0.000112
2830	0.0001785
2842	0.0002205
2854	0.0003395
2866	0.000525
2878	0.000455
2890	0.000364
2902	0.0003675
2914	0.0005005
2926	0.000868
2938	0.001043
2950	0.000623
2962	0.000448
2974	0.000357
2986	0.000266
2998	0.0003115
3010	0.0004865
3022	0.0009135
3034	0.001673
3046	0.001589
3058	0.0022155
3070	0.0049315
3082	0.0041475
3094	0.002184
3106	0.0010395
3118	0.0004585
3130	0.0003885
3142	0.00028
3154	0.0002905
3166	0.0002485
3178	0.0002135
3190	0.00014
3202	8.75e-05
3214	0.0001575
3226	9.1e-05
3238	0.0001435
3250	0.0001505
3262	0.0001155
3274	0.000168
3286	0.000203
3298	0.00021
3310	0.0001295
3322	0.0001505
3334	0.0001925
3346	0.000294
3358	0.000357
3370	0.0003675
3382	0.000252
3394	0.000203
3406	0.000196
3418	0.000161
3430	0.0001505
3442	0.000154
3454	0.0001645
3466	0.000147
3478	0.0001505
3490	0.0001645
3502	0.000322
3514	0.0003745
3526	0.000357
3538	0.0002975
3550	0.0005425
3562	0.002156
3574	0.0094675
3586	0.0065485
3598	0.0010115
3610	0.000455
3622	0.0005215
3634	0.000294
3646	0.000161
3658	0.0001505
3670	3.5e-05
3682	1.75e-05
3694	5.95e-05
3706	3.15e-05
3718	1.4e-05
3730	4.9e-05
3742	3.5e-06
3754	3.85e-05
3766	4.2e-05
3778	1.05e-05
3790	0.000119
3802	7.7e-05
3814	2.45e-05
3826	0.000126
3838	7.35e-05
