Infrared Spectrum: N-m-Tolylphthalamic acid
Formula: C 15 H 13 N O 3
CAS: 85-72-3
State: gas
Origin: EPA-IR VAPOR PHASE LIBRARY
1/CM	ABSORBANCE
549.8	0.001699
559.445	0.001439
569.09	0.0011726
578.734	0.0011197
588.379	0.0009707
598.024	0.0007423
607.669	0.000852
617.313	0.001809
626.958	0.010889
636.603	0.005439
646.248	0.0013621
655.893	0.0008843
665.537	0.0013121
675.182	0.002109
684.827	0.003609
694.472	0.004799
704.116	0.012069
713.761	0.027149
723.406	0.011729
733.051	0.003059
742.695	0.002169
752.34	0.002499
761.985	0.004399
771.63	0.013249
781.275	0.009679
790.919	0.003919
800.564	0.001829
810.209	0.0009123
819.854	0.0009949
829.498	0.0012898
839.143	0.0011624
848.788	0.0011898
858.433	0.002709
868.078	0.004809
877.722	0.005299
887.367	0.004469
897.012	0.004029
906.657	0.003459
916.301	0.002479
925.946	0.001649
935.591	0.0011262
945.236	0.001126
954.88	0.0013959
964.525	0.0012967
974.17	0.000984
983.815	0.0012198
993.46	0.0013236
1003.1	0.002319
1012.75	0.001419
1022.39	0.0009174
1032.04	0.001499
1041.68	0.002499
1051.33	0.004219
1060.97	0.007239
1070.62	0.011819
1080.26	0.015049
1089.91	0.013069
1099.55	0.014579
1109.2	0.014389
1118.84	0.008609
1128.49	0.004399
1138.13	0.002949
1147.78	0.001949
1157.42	0.003529
1167.07	0.002749
1176.71	0.003969
1186.36	0.003549
1196	0.002509
1205.64	0.002069
1215.29	0.002769
1224.93	0.005129
1234.58	0.010729
1244.22	0.008919
1253.87	0.003809
1263.51	0.003449
1273.16	0.002829
1282.8	0.003149
1292.45	0.003639
1302.09	0.004089
1311.74	0.004959
1321.38	0.006209
1331.03	0.008769
1340.67	0.013729
1350.32	0.027109
1359.96	0.068249
1369.61	0.109789
1379.25	0.044969
1388.9	0.013419
1398.54	0.008939
1408.18	0.008719
1417.83	0.006699
1427.47	0.007069
1437.12	0.009419
1446.76	0.013849
1456.41	0.008039
1466.05	0.006419
1475.7	0.007089
1485.34	0.013459
1494.99	0.018509
1504.63	0.007869
1514.28	0.005189
1523.92	0.004569
1533.57	0.003599
1543.21	0.002909
1552.86	0.002589
1562.5	0.002769
1572.15	0.003909
1581.79	0.006829
1591.44	0.009099
1601.08	0.010179
1610.73	0.012149
1620.37	0.006689
1630.01	0.003989
1639.66	0.002789
1649.3	0.002439
1658.95	0.002309
1668.59	0.002379
1678.24	0.002379
1687.88	0.002479
1697.53	0.003639
1707.17	0.007109
1716.82	0.012559
1726.46	0.033469
1736.11	0.113159
1745.75	0.116989
1755.4	0.028769
1765.04	0.010679
1774.69	0.009209
1784.33	0.009679
1793.98	0.012189
1803.62	0.007789
1813.27	0.004309
1822.91	0.002729
1832.55	0.002179
1842.2	0.001989
1851.84	0.001589
1861.49	0.001539
1871.13	0.001579
1880.78	0.0012624
1890.42	0.0010191
1900.07	0.0010497
1909.71	0.0012051
1919.36	0.0013484
1929	0.001679
1938.65	0.001659
1948.29	0.0012831
1957.94	0.0010544
1967.58	0.0011912
1977.23	0.0011216
1986.87	0.0007895
1996.52	0.0007459
2006.16	0.0008504
2015.81	0.0006709
2025.45	0.0006377
2035.1	0.0006479
2044.74	0.0007337
2054.38	0.0007318
2064.03	0.0007985
2073.67	0.0007454
2083.32	0.000635
2092.96	0.0006227
2102.61	0.0006539
2112.25	0.0006404
2121.9	0.0007014
2131.54	0.0007001
2141.19	0.0006759
2150.83	0.0007636
2160.48	0.0007889
2170.12	0.0008518
2179.77	0.0008375
2189.41	0.0008435
2199.06	0.000712
2208.7	0.0007339
2218.35	0.0006624
2227.99	0.0006707
2237.64	0.0007337
2247.28	0.0007285
2256.92	0.0007136
2266.57	0.0007185
2276.21	0.0006831
2285.86	0.00071
2295.5	0.0007077
2305.15	0.0007165
2314.79	0.0006456
2324.44	0.0006926
2334.08	0.0005815
2343.73	0.0007086
2353.37	0.0006017
2363.02	0.0006418
2372.66	0.0005977
2382.31	0.0007014
2391.95	0.0006758
2401.6	0.0006284
2411.24	0.0006497
2420.89	0.000775
2430.53	0.000836
2440.18	0.0008952
2449.82	0.0008598
2459.47	0.0007999
2469.11	0.0008031
2478.75	0.0008161
2488.4	0.0006877
2498.04	0.0005938
2507.69	0.0006021
2517.33	0.0005796
2526.98	0.0005203
2536.62	0.0006048
2546.27	0.0006229
2555.91	0.0005925
2565.56	0.0006403
2575.2	0.0005929
2584.85	0.0005869
2594.49	0.00047002
2604.14	0.0005336
2613.78	0.0006607
2623.43	0.000517
2633.07	0.00043292
2642.72	0.000632
2652.36	0.0006308
2662.01	0.000546
2671.65	0.00045494
2681.29	0.0006405
2690.94	0.0006037
2700.58	0.0006508
2710.23	0.000556
2719.87	0.0005352
2729.52	0.0005547
2739.16	0.0005806
2748.81	0.0006563
2758.45	0.00050652
2768.1	0.0005269
2777.74	0.0005621
2787.39	0.000638
2797.03	0.0006274
2806.68	0.0006307
2816.32	0.0006458
2825.97	0.0007708
2835.61	0.0008259
2845.26	0.0010315
2854.9	0.0011906
2864.55	0.001809
2874.19	0.002319
2883.84	0.002239
2893.48	0.001859
2903.12	0.002209
2912.77	0.002699
2922.41	0.003809
2932.06	0.005119
2941.7	0.003859
2951.35	0.002469
2960.99	0.001989
2970.64	0.001729
2980.28	0.001489
2989.93	0.001719
2999.57	0.001859
3009.22	0.001999
3018.86	0.002519
3028.51	0.003569
3038.15	0.004559
3047.8	0.005659
3057.44	0.006239
3067.09	0.005829
3076.73	0.005399
3086.38	0.005709
3096.02	0.003659
3105.67	0.001919
3115.31	0.0012094
3124.95	0.000923
3134.6	0.0005896
3144.24	0.00040329
3153.89	0.0005505
3163.53	0.0004684
3173.18	0.0003857
3182.82	0.000418765
3192.47	0.0005146
3202.11	0.00050642
3211.76	0.0005116
3221.4	0.0005486
3231.05	0.00047395
3240.69	0.00044368
3250.34	0.0004304
3259.98	0.000238
3269.63	0.00043738
3279.27	0.0003387
3288.92	0.000294
3298.56	0.000201
3308.21	0.0003428
3317.85	0.000415853
3327.49	0.0006334
3337.14	0.0003922
3346.78	0.00040451
3356.43	0.00040708
3366.07	0.0004531
3375.72	0.000272
3385.36	0.000418145
3395.01	0.0003418
3404.65	0.00045761
3414.3	0.0003934
3423.94	0.000279
3433.59	0.00045523
3443.23	0.0003456
3452.88	0.000414459
3462.52	0.0006264
3472.17	0.0006632
3481.81	0.0007551
3491.46	0.0010077
3501.1	0.001293
3510.75	0.001479
3520.39	0.0013262
3530.04	0.0009455
3539.68	0.0005509
3549.32	0.00043211
3558.97	0.000197
3568.61	0.00045622
3578.26	0.00039943
3587.9	0.000287
3597.55	0.000395
3607.19	0.0003166
3616.84	0.000359
3626.48	0.0003349
3636.13	0.0005796
3645.77	0.0003947
3655.42	0.000287
3665.06	0.0003615
3674.71	0.0003265
3684.35	0.00046165
3694	0.000293
3703.64	0.0003173
3713.29	0.000218
3722.93	0.000283
3732.58	0.000542
3742.22	0.00042309
3751.86	8.4e-05
3761.51	0.0003338
3771.15	0.00044763
3780.8	0.000306
3790.44	0.0005547
3800.09	0.0003303
3809.73	0.00048157
3819.38	0.00040761
3829.02	0.0005444
3838.67	0.000228
3848.31	0.000288
3857.96	0.0003914
3867.6	0.00045047
3877.25	8.7e-05
3886.89	0.0003255
3896.54	0.0003768
3906.18	0.00050292
3915.83	0.000183
3925.47	0.00050627
3935.12	0.0005356
3944.76	0.0003491
3954.41	0.0003598
3964.05	0.000626
3973.69	0.0003881
3983.34	0.0003131
3992.98	0.000242
