Infrared Spectrum: Methylphthalyl ethyl glycolate
Formula: C13 H14 O6
CAS: 85-71-2
State: SOLUTION (10% CCl4 FOR 2.7-7.5, 10% CS2 FOR 7.5-26 MICRON) VS SOLVENT
Class: COBLENTZ III
Instrument: DOW KBr FOREPRISM-GRATING
Instrument parameters: BLAZED AT 3.5, 12.0, 20.0 MICRON AND CHANGED AT 5.0, 7.5, 14.9 MICRON
Sampling: TRANSMISSION
Path length: 0.011 CM, 0.011 CM
Resolution: 2
Origin: DOW CHEMICAL COMPANY
1/CM	TRANSMITTANCE
3792	0.8641
3783	0.8641
3774	0.8642
3765	0.864
3756	0.8639
3747	0.8639
3738	0.8645
3729	0.8651
3720	0.8659
3711	0.8666
3702	0.8675
3693	0.8684
3684	0.8691
3675	0.8675
3666	0.8608
3657	0.8628
3648	0.8654
3639	0.8661
3630	0.8661
3621	0.8661
3612	0.8662
3603	0.8664
3594	0.8666
3585	0.8668
3576	0.8673
3567	0.8675
3558	0.8678
3549	0.8659
3540	0.8646
3531	0.8644
3522	0.8643
3513	0.8639
3504	0.8634
3495	0.8624
3486	0.8612
3477	0.8599
3468	0.8586
3459	0.8545
3450	0.8503
3441	0.847
3432	0.848
3423	0.8567
3414	0.8663
3405	0.8741
3396	0.8792
3387	0.883
3378	0.8847
3369	0.8856
3360	0.8858
3351	0.8851
3342	0.884
3333	0.8818
3324	0.8798
3315	0.8778
3306	0.8768
3297	0.8762
3288	0.8762
3279	0.8767
3270	0.878
3261	0.8791
3252	0.8801
3243	0.8811
3234	0.8814
3225	0.8816
3216	0.8818
3207	0.882
3198	0.8821
3189	0.8816
3180	0.8785
3171	0.8757
3162	0.8743
3153	0.873
3144	0.8725
3135	0.8727
3126	0.8725
3117	0.8715
3108	0.8694
3099	0.8668
3090	0.8621
3081	0.8518
3072	0.7794
3063	0.7643
3054	0.7744
3045	0.7901
3036	0.7954
3027	0.7832
3018	0.728
3009	0.725
3000	0.6092
2991	0.5181
2982	0.4858
2973	0.5409
2964	0.6044
2955	0.4538
2946	0.3572
2937	0.578
2928	0.6489
2919	0.7228
2910	0.7649
2901	0.7483
2892	0.7345
2883	0.7588
2874	0.7862
2865	0.7908
2856	0.8125
2847	0.8211
2838	0.8006
2829	0.801
2820	0.8475
2811	0.8634
2802	0.8647
2793	0.8665
2784	0.8686
2775	0.8694
2766	0.8701
2757	0.8707
2748	0.8713
2739	0.8718
2730	0.8721
2721	0.8718
2712	0.8716
2703	0.872
2694	0.8725
2685	0.8728
2676	0.8734
2667	0.8739
2658	0.8745
2649	0.875
2640	0.8754
2631	0.8756
2622	0.8755
2613	0.8742
2604	0.8716
2595	0.8667
2586	0.8649
2577	0.8632
2568	0.8625
2559	0.8624
2550	0.863
2541	0.8649
2532	0.8677
2523	0.8706
2514	0.8725
2505	0.8731
2496	0.8735
2487	0.8724
2478	0.8723
2469	0.8734
2460	0.876
2451	0.8771
2442	0.8771
2433	0.8754
2424	0.8725
2415	0.8694
2406	0.867
2397	0.8637
2388	0.8649
2379	0.8668
2370	0.8684
2361	0.8697
2352	0.8707
2343	0.8714
2334	0.8715
2325	0.8707
2316	0.8684
2307	0.8663
2298	0.8662
2289	0.8663
2280	0.8661
2271	0.867
2262	0.868
2253	0.8695
2244	0.8711
2235	0.873
2226	0.875
2217	0.8771
2208	0.8794
2199	0.8805
2190	0.8814
2181	0.8824
2172	0.8813
2163	0.8699
2154	0.8688
2145	0.8656
2136	0.8584
2127	0.8521
2118	0.8499
2109	0.8486
2100	0.8483
2091	0.8486
2082	0.8527
2073	0.8574
2064	0.8612
2055	0.8617
2046	0.8618
2037	0.862
2028	0.8635
2019	0.8662
2010	0.8696
2001	0.8711
1992	0.8712
1983	0.8706
1974	0.8692
1965	0.849
1956	0.8525
1947	0.8521
1938	0.8289
1929	0.8225
1920	0.8432
1911	0.8421
1902	0.8431
1893	0.8486
1884	0.8474
1875	0.8454
1866	0.8368
1857	0.8302
1848	0.823
1839	0.8005
1830	0.7804
1821	0.7815
1812	0.7758
1803	0.7618
1794	0.7234
1785	0.6631
1776	0.4475
1767	0.1499
1758	0.0224
1749	0.0172
1740	0.0073
1731	0.0052
1722	0.004
1713	0.0837
1704	0.4531
1695	0.544
1686	0.6141
1677	0.6821
1668	0.7346
1659	0.7554
1650	0.7696
1641	0.7832
1632	0.7875
1623	0.7887
1614	0.7875
1605	0.7783
1596	0.5192
1587	0.7171
1578	0.4873
1569	0.7404
1560	0.7819
1551	0.8071
1542	0.8192
1533	0.821
1524	0.8126
1515	0.8069
1506	0.7978
1497	0.7704
1488	0.5316
1479	0.6499
1470	0.6332
1461	0.5349
1452	0.4923
1443	0.3741
1434	0.1529
1425	0.3308
1416	0.5625
1407	0.5869
1398	0.4764
1389	0.4856
1380	0.1699
1371	0.4442
1362	0.4716
1353	0.5091
1344	0.6435
1335	0.6414
1326	0.5837
1317	0.4336
1308	0.2452
1299	0.0475
1290	0.0073
1281	0.0029
1272	0.0027
1263	0.0111
1254	0.0367
1245	0.1073
1236	0.243
1227	0.3184
1218	0.1745
1209	0.0325
1200	0.0078
1191	0.0642
1182	0.3091
1173	0.4681
1164	0.499
1155	0.4893
1146	0.4667
1137	0.1477
1128	0.0131
1119	0.0075
1110	0.06
1101	0.3204
1092	0.3438
1083	0.0811
1074	0.0523
1065	0.457
1056	0.5888
1047	0.4355
1038	0.2723
1029	0.2933
1020	0.4626
1011	0.5473
1002	0.557
993	0.6375
984	0.7476
975	0.7614
966	0.5064
957	0.6073
948	0.7541
939	0.7742
930	0.7787
921	0.7972
912	0.805
903	0.8318
894	0.8352
885	0.8206
876	0.8043
867	0.7826
858	0.7518
849	0.7434
840	0.7108
831	0.7085
822	0.7224
813	0.6201
804	0.7265
795	0.6399
786	0.5683
777	0.5597
768	0.5521
759	0.4762
750	0.3155
741	0.1379
732	0.3716
723	0.561
714	0.578
705	0.551
696	0.554
687	0.6525
678	0.7584
669	0.8011
660	0.8257
651	0.7003
642	0.7515
633	0.8074
624	0.8187
615	0.8189
606	0.8167
597	0.8114
588	0.7971
579	0.7621
570	0.7233
561	0.6933
552	0.7336
543	0.7836
534	0.7955
525	0.7975
516	0.8069
507	0.8158
498	0.8225
489	0.8178
480	0.8089
471	0.7989
462	0.7936
453	0.7985
444	0.8044
435	0.8026
426	0.8001
417	0.7968
408	0.7965
399	0.7974
