Infrared Spectrum: DIBUCAINE
Formula: C20 H29 N3 O2
CAS: 85-79-0
State: SOLID (1 mg / 200 mg KBr DISC) VS KBr
Class: COBLENTZ III
Instrument: PERKIN-ELMER 21 (GRATING)
Instrument parameters: FILTER AT ABOUT 10 MICRONS
Sampling: TRANSMISSION
Path length: 0.055 CM (THICKNESS)
Resolution: 2
1/CM	TRANSMITTANCE
4000	0.888
3991	0.8885
3982	0.8891
3973	0.8896
3964	0.8903
3955	0.8909
3946	0.8915
3937	0.8921
3928	0.8927
3919	0.8933
3910	0.894
3901	0.8946
3892	0.8952
3883	0.8959
3874	0.8965
3865	0.8971
3856	0.8977
3847	0.8983
3838	0.8989
3829	0.8996
3820	0.9002
3811	0.9008
3802	0.9016
3793	0.9027
3784	0.904
3775	0.9052
3766	0.9064
3757	0.907
3748	0.9073
3739	0.9075
3730	0.9078
3721	0.9081
3712	0.9083
3703	0.9083
3694	0.9082
3685	0.9082
3676	0.9082
3667	0.9078
3658	0.9071
3649	0.9063
3640	0.9056
3631	0.9045
3622	0.9021
3613	0.8994
3604	0.8967
3595	0.8941
3586	0.8914
3577	0.8887
3568	0.8856
3559	0.8825
3550	0.8795
3541	0.8764
3532	0.8734
3523	0.8703
3514	0.8675
3505	0.865
3496	0.8624
3487	0.8598
3478	0.8571
3469	0.8552
3460	0.8536
3451	0.852
3442	0.8503
3433	0.8492
3424	0.8486
3415	0.8478
3406	0.8478
3397	0.8478
3388	0.8478
3379	0.848
3370	0.848
3361	0.8466
3352	0.794
3343	0.7015
3334	0.6087
3325	0.5153
3316	0.4212
3307	0.372
3298	0.4
3289	0.4649
3280	0.5299
3271	0.5954
3262	0.6611
3253	0.7218
3244	0.7551
3235	0.7845
3226	0.8032
3217	0.8158
3208	0.8307
3199	0.849
3190	0.8618
3181	0.8715
3172	0.8787
3163	0.8839
3154	0.8866
3145	0.8877
3136	0.8883
3127	0.8875
3118	0.8804
3109	0.8667
3100	0.8562
3091	0.845
3082	0.8398
3073	0.8394
3064	0.843
3055	0.8523
3046	0.8621
3037	0.8685
3028	0.8684
3019	0.8597
3010	0.8386
3001	0.8019
2992	0.6414
2983	0.4803
2974	0.4823
2965	0.4988
2956	0.5166
2947	0.531
2938	0.5536
2929	0.5871
2920	0.6208
2911	0.6546
2902	0.6824
2893	0.6811
2884	0.6721
2875	0.6668
2866	0.6841
2857	0.7165
2848	0.7386
2839	0.7404
2830	0.7398
2821	0.7375
2812	0.7388
2803	0.7586
2794	0.7908
2785	0.8234
2776	0.8451
2767	0.8584
2758	0.8677
2749	0.8756
2740	0.8828
2731	0.8878
2722	0.8921
2713	0.8964
2704	0.9001
2695	0.9028
2686	0.9059
2677	0.9088
2668	0.9111
2659	0.9133
2650	0.9155
2641	0.9174
2632	0.9193
2623	0.9211
2614	0.9228
2605	0.9247
2596	0.9266
2587	0.9291
2578	0.9325
2569	0.937
2560	0.9404
2551	0.9413
2542	0.9409
2533	0.9403
2524	0.941
2515	0.9428
2506	0.9446
2497	0.9465
2488	0.9485
2479	0.9506
2470	0.9525
2461	0.9533
2452	0.9525
2443	0.9518
2434	0.9513
2425	0.9514
2416	0.9521
2407	0.953
2398	0.9538
2389	0.9544
2380	0.9551
2371	0.9558
2362	0.9565
2353	0.9571
2344	0.9578
2335	0.9585
2326	0.9592
2317	0.9598
2308	0.9605
2299	0.9615
2290	0.9625
2281	0.9637
2272	0.9647
2263	0.9658
2254	0.9666
2245	0.9673
2236	0.968
2227	0.9687
2218	0.9694
2209	0.9697
2200	0.97
2191	0.9702
2182	0.9705
2173	0.9707
2164	0.971
2155	0.9713
2146	0.9716
2137	0.9718
2128	0.9721
2119	0.9725
2110	0.9727
2101	0.973
2092	0.9733
2083	0.9737
2074	0.9746
2065	0.9756
2056	0.9766
2047	0.9774
2038	0.978
2029	0.9788
2020	0.9794
2011	0.9796
2002	0.9798
1993	0.9801
1984	0.9794
1975	0.9728
1966	0.9675
1957	0.9727
1948	0.9768
1939	0.9786
1930	0.9774
1921	0.9774
1912	0.9795
1903	0.9798
1894	0.9792
1885	0.9805
1876	0.9828
1867	0.9843
1858	0.9843
1849	0.9821
1840	0.9801
1831	0.9799
1822	0.9784
1813	0.9741
1804	0.9746
1795	0.9753
1786	0.975
1777	0.9739
1768	0.9714
1759	0.9637
1750	0.9567
1741	0.9547
1732	0.9552
1723	0.9524
1714	0.9478
1705	0.941
1696	0.9293
1687	0.9039
1678	0.8595
1669	0.8239
1660	0.6173
1651	0.3093
1642	0.4689
1633	0.7568
1624	0.769
1615	0.5169
1606	0.1875
1597	0.327
1588	0.6191
1579	0.5047
1570	0.6546
1561	0.5173
1552	0.2623
1543	0.388
1534	0.6518
1525	0.7076
1516	0.7392
1507	0.7841
1498	0.8323
1489	0.8398
1480	0.7572
1471	0.6058
1462	0.6571
1453	0.7462
1444	0.8026
1435	0.823
1426	0.8175
1417	0.7339
1408	0.5332
1399	0.4583
1390	0.6506
1381	0.6971
1372	0.7105
1363	0.7483
1354	0.5549
1345	0.3622
1336	0.4281
1327	0.6375
1318	0.606
1309	0.6965
1300	0.6834
1291	0.7157
1282	0.7101
1273	0.8217
1264	0.6989
1255	0.8301
1246	0.8331
1237	0.5618
1228	0.6683
1219	0.8418
1210	0.8609
1201	0.7781
1192	0.6543
1183	0.5818
1174	0.7647
1165	0.8914
1156	0.8121
1147	0.8823
1138	0.8111
1129	0.6869
1120	0.868
1111	0.8981
1102	0.8941
1093	0.7696
1084	0.7804
1075	0.7876
1066	0.5982
1057	0.8162
1048	0.8961
1039	0.8456
1030	0.8566
1021	0.8511
1012	0.9094
1003	0.914
994	0.9207
985	0.9473
976	0.9467
967	0.9557
958	0.946
949	0.888
940	0.9591
931	0.9725
922	0.9767
913	0.9793
904	0.9784
895	0.9637
886	0.9546
877	0.7858
868	0.9123
859	0.9671
850	0.9423
841	0.9754
832	0.9571
823	0.9677
814	0.9637
805	0.9368
796	0.7765
787	0.8974
778	0.8745
769	0.8424
760	0.6436
751	0.6538
742	0.895
733	0.8875
724	0.8378
715	0.8318
706	0.827
697	0.81
688	0.8478
679	0.823
670	0.9033
