Infrared Spectrum: o-TOLYLAZO-o-TOLYLAZO-Beta-NAPHTHOL
Formula: C24 H20 N4 O
CAS: 85-83-6
State: SOLID (MINERAL OIL MULL)
Class: COBLENTZ
Instrument: Not specified, most likely a prism, grating, or hybrid spectrometer.
Sampling: TRANSMISSION
Resolution: 4
Origin: WYANDOTTE CHEMICALS CORP., WYANDOTTE, MICHIGAN, USA
MICROMETERS	TRANSMITTANCE
2.012	0.101
2.04925	0.121
2.0865	0.126
2.12375	0.13
2.161	0.138
2.19825	0.152
2.2355	0.147
2.27275	0.152
2.31	0.154
2.34726	0.157
2.38451	0.158
2.42176	0.16
2.45901	0.171
2.49626	0.188
2.53351	0.191
2.57076	0.197
2.60801	0.204
2.64526	0.211
2.68251	0.225
2.71976	0.238
2.75701	0.244
2.79426	0.239
2.83151	0.242
2.86876	0.244
2.90601	0.236
2.94326	0.236
2.98052	0.238
3.01777	0.238
3.05502	0.239
3.09227	0.246
3.12952	0.241
3.16677	0.244
3.20402	0.241
3.24127	0.241
3.27852	0.185
3.31577	0.143
3.35302	0.095
3.39027	0.021
3.42752	0.026
3.46477	0.026
3.50202	0.021
3.53927	0.049
3.57653	0.257
3.61378	0.362
3.65103	0.383
3.68828	0.383
3.72553	0.389
3.76278	0.395
3.80003	0.411
3.83728	0.425
3.87453	0.437
3.91178	0.45
3.94903	0.47
3.98628	0.482
4.02353	0.498
4.06078	0.503
4.09803	0.509
4.13528	0.523
4.17253	0.532
4.20979	0.532
4.24704	0.537
4.28429	0.517
4.32154	0.548
4.35879	0.565
4.39604	0.605
4.43329	0.612
4.47054	0.607
4.50779	0.61
4.54504	0.623
4.58229	0.63
4.61954	0.638
4.65679	0.652
4.69404	0.655
4.73129	0.658
4.76854	0.674
4.80579	0.683
4.84305	0.693
4.8803	0.702
4.91755	0.708
4.9548	0.711
4.99205	0.721
5.0293	0.728
5.06655	0.738
5.1038	0.747
5.14105	0.755
5.1783	0.755
5.21555	0.724
5.2528	0.728
5.29005	0.741
5.3273	0.752
5.36455	0.766
5.4018	0.789
5.43906	0.813
5.47631	0.806
5.51356	0.788
5.55081	0.809
5.58806	0.795
5.62531	0.825
5.66256	0.811
5.69981	0.838
5.73706	0.83
5.77431	0.819
5.81156	0.803
5.84881	0.828
5.88606	0.8
5.92331	0.802
5.96056	0.795
5.99781	0.78
6.03506	0.728
6.07232	0.738
6.10957	0.518
6.14682	0.311
6.18407	0.507
6.22132	0.436
6.25857	0.456
6.29582	0.44
6.33307	0.4
6.37032	0.375
6.40757	0.366
6.44482	0.359
6.48207	0.478
6.51932	0.428
6.55657	0.303
6.59382	0.174
6.63107	0.121
6.66832	0.137
6.70558	0.165
6.74283	0.141
6.78008	0.098
6.81733	0.062
6.85458	0.063
6.89183	0.074
6.92908	0.152
6.96633	0.292
7.00358	0.383
7.04083	0.431
7.07808	0.333
7.11533	0.246
7.15258	0.334
7.18983	0.334
7.22708	0.169
7.26433	0.133
7.30159	0.313
7.33884	0.429
7.37609	0.51
7.41334	0.528
7.45059	0.509
7.48784	0.484
7.52509	0.398
7.56234	0.394
7.59959	0.395
7.63684	0.394
7.67409	0.369
7.71134	0.338
7.74859	0.258
7.78584	0.202
7.82309	0.233
7.86034	0.281
7.89759	0.277
7.93485	0.224
7.9721	0.233
8.00935	0.288
8.0466	0.252
8.08385	0.222
8.1211	0.224
8.15835	0.232
8.1956	0.317
8.23285	0.21
8.2701	0.065
8.30735	0.166
8.3446	0.292
8.38185	0.356
8.4191	0.362
8.45635	0.484
8.4936	0.495
8.53085	0.479
8.56811	0.496
8.60536	0.523
8.64261	0.378
8.67986	0.288
8.71711	0.403
8.75436	0.422
8.79161	0.417
8.82886	0.448
8.86611	0.521
8.90336	0.574
8.94061	0.579
8.97786	0.515
9.01511	0.415
9.05236	0.373
9.08961	0.257
9.12686	0.309
9.16412	0.344
9.20137	0.35
9.23862	0.434
9.27587	0.515
9.31312	0.574
9.35037	0.607
9.38762	0.643
9.42487	0.665
9.46212	0.676
9.49937	0.691
9.53662	0.677
9.57387	0.626
9.61112	0.548
9.64837	0.565
9.68562	0.618
9.72287	0.685
9.76012	0.725
9.79738	0.742
9.83463	0.739
9.87188	0.738
9.90913	0.766
9.94638	0.799
9.98363	0.813
10.0209	0.809
10.0581	0.746
10.0954	0.568
10.1326	0.485
10.1699	0.604
10.2071	0.661
10.2444	0.651
10.2816	0.649
10.3189	0.657
10.3561	0.63
10.3934	0.688
10.4306	0.739
10.4679	0.758
10.5051	0.767
10.5424	0.749
10.5796	0.679
10.6169	0.682
10.6541	0.747
10.6914	0.808
10.7286	0.82
10.7659	0.83
10.8031	0.842
10.8404	0.855
10.8776	0.858
10.9149	0.858
10.9521	0.859
10.9894	0.861
11.0266	0.855
11.0639	0.828
11.1011	0.813
11.1384	0.744
11.1756	0.638
11.2129	0.489
11.2501	0.417
11.2874	0.529
11.3246	0.599
11.3619	0.58
11.3992	0.593
11.4364	0.566
11.4737	0.485
11.5109	0.44
11.5482	0.47
11.5854	0.492
11.6227	0.507
11.6599	0.54
11.6972	0.588
11.7344	0.623
11.7717	0.638
11.8089	0.652
11.8462	0.654
11.8834	0.626
11.9207	0.49
11.9579	0.247
11.9952	0.157
12.0324	0.199
12.0697	0.285
12.1069	0.348
12.1442	0.364
12.1814	0.409
12.2187	0.517
12.2559	0.612
12.2932	0.672
12.3304	0.744
12.3677	0.78
12.4049	0.817
12.4422	0.838
12.4794	0.87
12.5167	0.908
12.5539	0.92
12.5912	0.933
12.6284	0.942
12.6657	0.948
12.7029	0.94
12.7402	0.904
12.7774	0.781
12.8147	0.716
12.8519	0.755
12.8892	0.783
12.9264	0.71
12.9637	0.593
13.0009	0.468
13.0382	0.341
13.0754	0.271
13.1127	0.323
13.1499	0.415
13.1872	0.468
13.2244	0.419
13.2617	0.294
13.2989	0.228
13.3362	0.219
13.3734	0.271
13.4107	0.358
13.4479	0.459
13.4852	0.577
13.5224	0.655
13.5597	0.679
13.5969	0.697
13.6342	0.711
13.6714	0.714
13.7087	0.632
13.7459	0.454
13.7832	0.317
13.8204	0.364
13.8577	0.498
13.8949	0.599
13.9322	0.68
13.9694	0.718
14.0067	0.736
14.0439	0.738
14.0812	0.685
14.1184	0.716
14.1557	0.795
14.1929	0.862
14.2302	0.92
14.2674	0.933
14.3047	0.953
14.3419	0.961
14.3792	0.968
14.4164	0.964
14.4537	0.959
14.491	0.951
14.5282	0.928
14.5655	0.889
14.6027	0.847
14.64	0.814
14.6772	0.799
14.7145	0.814
14.7517	0.836
14.789	0.842
14.8262	0.855
14.8635	0.867
14.9007	0.87
14.938	0.858
14.9752	0.828
15.0125	0.774
15.0497	0.727
15.087	0.746
15.1242	0.789
15.1615	0.808
15.1987	0.785
15.236	0.75
15.2732	0.724
15.3105	0.704
15.3477	0.688
15.385	0.682
15.4222	0.669
15.4595	0.658
15.4967	0.635
15.534	0.629
15.5712	0.623
15.6085	0.612
15.6457	0.588
15.683	0.562
15.7202	0.554
15.7575	0.529
15.7947	0.507
15.832	0.487
15.8692	0.467
15.9065	0.448
15.9437	0.436
15.981	0.423
