Infrared Spectrum: 1-(-2-Pyridylazo)-2-naphthol
Formula: C 15 H 11 N 3 O
CAS: 85-85-8
State: gas
Instrument: HP-GC/MS/IRD
Origin: NIST Mass Spectrometry Data Center
1/CM	ABSORBANCE
550	0.000299
562	0.000276
574	5.52e-05
586	0.0002208
598	7.36e-05
610	3.22e-05
622	0.0003082
634	0.0001702
646	0.0001081
658	0.0001748
670	0.0003059
682	0.0004968
694	0.0002737
706	0.0004094
718	0.0010212
730	0.0015939
742	0.0031763
754	0.0046529
766	0.0024978
778	0.0021298
790	0.0009913
802	0.0005888
814	0.0005819
826	0.0010948
838	0.0027508
850	0.002323
862	0.0023023
874	0.0013662
886	0.000322
898	0.0001932
910	6.44e-05
922	2.76e-05
934	1.61e-05
946	0.0001817
958	0.0002346
970	0.0003795
982	0.0012397
994	0.0015939
1006	0.0002162
1018	0.0001633
1030	0.0002392
1042	0.0004899
1054	0.0003864
1066	0.0004025
1078	0.0009177
1090	0.0017986
1102	0.0015939
1114	0.0011983
1126	0.0022195
1138	0.0044367
1150	0.0030245
1162	0.0027554
1174	0.0039537
1186	0.0080868
1198	0.0139357
1210	0.0077648
1222	0.0087285
1234	0.0058765
1246	0.0045747
1258	0.0055637
1270	0.003289
1282	0.0025024
1294	0.0032131
1306	0.0022425
1318	0.0017779
1330	0.0013363
1342	0.0010189
1354	0.0009476
1366	0.0009867
1378	0.0012098
1390	0.0020493
1402	0.0035926
1414	0.0044597
1426	0.0070679
1438	0.0123487
1450	0.0045264
1462	0.0038985
1474	0.006785
1486	0.0095243
1498	0.018791
1510	0.020355
1522	0.0082363
1534	0.0038065
1546	0.0029762
1558	0.0035972
1570	0.0062859
1582	0.0060605
1594	0.0050991
1606	0.0027991
1618	0.0033971
1630	0.0047748
1642	0.0025737
1654	0.0011132
1666	0.0005796
1678	0.0004347
1690	0.0003703
1702	0.0003772
1714	0.0003772
1726	0.0003841
1738	0.0003611
1750	0.0002047
1762	0.0001771
1774	0.0001426
1786	0.0001104
1798	0.0001035
1810	0.000184
1822	0.0001656
1834	0.0001702
1846	0.000207
1858	0.0001219
1870	7.36e-05
1882	9.66e-05
1894	0.0001127
1906	0.0001702
1918	0.0002231
1930	0.000161
1942	0.0001909
1954	0.0001978
1966	0.0001127
1978	6.21e-05
1990	7.82e-05
2002	4.83e-05
2014	3.45e-05
2026	2.53e-05
2038	4.37e-05
2050	2.99e-05
2062	5.52e-05
2074	1.61e-05
2086	3.45e-05
2098	2.99e-05
2110	3.91e-05
2122	6.44e-05
2134	5.29e-05
2146	4.6e-05
2158	5.06e-05
2170	7.36e-05
2182	5.52e-05
2194	2.99e-05
2206	3.91e-05
2218	2.99e-05
2230	4.14e-05
2242	2.3e-05
2254	1.38e-05
2266	2.53e-05
2278	1.61e-05
2290	9.89e-05
2302	1.15e-05
2314	5.52e-05
2326	5.29e-05
2338	7.59e-05
2350	0.0001012
2362	7.82e-05
2374	8.97e-05
2386	6.9e-05
2398	7.13e-05
2410	4.83e-05
2422	5.29e-05
2434	0.0001058
2446	0.0001219
2458	0.0001081
2470	0.0001058
2482	9.2e-05
2494	8.74e-05
2506	0.0001058
2518	9.43e-05
2530	0.0001104
2542	8.05e-05
2554	6.21e-05
2566	5.06e-05
2578	7.82e-05
2590	6.67e-05
2602	9.43e-05
2614	8.05e-05
2626	8.28e-05
2638	0.0001127
2650	5.75e-05
2662	0.000115
2674	8.28e-05
2686	0.0001012
2698	0.0001127
2710	9.43e-05
2722	6.44e-05
2734	5.29e-05
2746	0.0001265
2758	9.2e-05
2770	0.0001104
2782	4.83e-05
2794	8.05e-05
2806	4.6e-05
2818	0
2830	5.52e-05
2842	3.45e-05
2854	8.05e-05
2866	5.29e-05
2878	4.6e-05
2890	2.3e-05
2902	8.97e-05
2914	0.000138
2926	8.51e-05
2938	0.0001564
2950	0.0001794
2962	0.0001541
2974	0.0002162
2986	0.0002714
2998	0.0003059
3010	0.0005152
3022	0.0008947
3034	0.0013225
3046	0.0017227
3058	0.0019412
3070	0.0024196
3082	0.0019274
3094	0.0009085
3106	0.0006026
3118	0.0003473
3130	0.0002438
3142	0.00023
3154	0.0001909
3166	0.0002208
3178	0.00023
3190	0.00023
3202	0.0001679
3214	0.0001495
3226	0.0001472
3238	0.0001173
3250	0.0001311
3262	8.97e-05
3274	8.97e-05
3286	9.66e-05
3298	7.59e-05
3310	8.05e-05
3322	1.61e-05
3334	9.66e-05
3346	5.75e-05
3358	8.51e-05
3370	5.52e-05
3382	0.0001104
3394	8.05e-05
3406	6.67e-05
3418	9.89e-05
3430	2.53e-05
3442	6.21e-05
3454	7.59e-05
3466	0.0001104
3478	4.14e-05
3490	5.52e-05
3502	9.66e-05
3514	9.89e-05
3526	0.0001288
3538	0.0001426
3550	5.75e-05
3562	0.0001104
3574	8.74e-05
3586	8.74e-05
3598	7.82e-05
3610	0.0001403
3622	8.74e-05
3634	7.36e-05
3646	0.000184
3658	8.97e-05
3670	9.66e-05
3682	9.66e-05
3694	0.0001265
3706	0.0001449
3718	8.97e-05
3730	0.0001242
3742	0.0001081
3754	0.0002139
3766	0.0002208
3778	0.0001932
3790	0.0001311
3802	0.0001196
3814	0.0002392
3826	0.0001794
3838	0.0002001
