Infrared Spectrum: 6-METHOXY-8-NITRO-QUINOLINE
Formula: C10 H8 N2 O3
CAS: 85-81-4
State: SOLID (1.0% IN KBr PELLET)
Class: COBLENTZ
Instrument: Not specified, most likely a prism, grating, or hybrid spectrometer.
Sampling: TRANSMISSION
Path length: 0.0355 CM
Resolution: 4
Origin: ANDERSON PHYSICAL LABORATORY
1/CM	TRANSMITTANCE
672.392	0.734
680.824	0.737
689.257	0.737
697.689	0.734
706.121	0.719
714.553	0.6531
722.986	0.532
731.418	0.7
739.85	0.734
748.282	0.719
756.715	0.5
765.147	0.5627
773.579	0.701
782.012	0.685
790.444	0.3612
798.876	0.4869
807.308	0.6799
815.741	0.788
824.173	0.8
832.605	0.794
841.038	0.746
849.47	0.4279
857.902	0.233
866.334	0.5978
874.767	0.679
883.199	0.565
891.631	0.566
900.063	0.452
908.496	0.736
916.928	0.764
925.36	0.769
933.793	0.757
942.225	0.637
950.657	0.739
959.089	0.752
967.522	0.754
975.954	0.76
984.386	0.758
992.818	0.737
1001.25	0.725
1009.68	0.719
1018.12	0.692
1026.55	0.628
1034.98	0.4312
1043.41	0.404
1051.84	0.2562
1060.28	0.4309
1068.71	0.694
1077.14	0.728
1085.57	0.746
1094.01	0.748
1102.44	0.742
1110.87	0.716
1119.3	0.686
1127.73	0.64
1136.17	0.4751
1144.6	0.437
1153.03	0.593
1161.46	0.391
1169.9	0.346
1178.33	0.67
1186.76	0.722
1195.19	0.704
1203.63	0.568
1212.06	0.568
1220.49	0.566
1228.92	0.602
1237.35	0.509
1245.79	0.302
1254.22	0.154
1262.65	0.2081
1271.08	0.571
1279.52	0.683
1287.95	0.778
1296.38	0.766
1304.81	0.728
1313.24	0.652
1321.68	0.523
1330.11	0.448
1338.54	0.388
1346.97	0.257
1355.41	0.5
1363.84	0.4271
1372.27	0.235
1380.7	0.445
1389.14	0.359
1397.57	0.356
1406	0.347
1414.43	0.467
1422.86	0.548
1431.3	0.547
1439.73	0.4601
1448.16	0.398
1456.59	0.4011
1465.03	0.208
1473.46	0.334
1481.89	0.335
1490.32	0.343
1498.75	0.35
1507.19	0.184
1515.62	0.251
1524.05	0.325
1532.48	0.329
1540.92	0.202
1549.35	0.131
1557.78	0.149
1566.21	0.247
1574.65	0.394
1583.08	0.451
1591.51	0.473
1599.94	0.4149
1608.37	0.3819
1616.81	0.472
1625.24	0.433
1633.67	0.262
1642.1	0.214
1650.54	0.404
1658.97	0.529
1667.4	0.709
1675.83	0.739
1684.27	0.761
1692.7	0.766
1701.13	0.767
1709.56	0.769
1717.99	0.784
1726.43	0.794
1734.86	0.796
1743.29	0.79
1751.72	0.778
1760.16	0.76
1768.59	0.776
1777.02	0.781
1785.45	0.784
1793.88	0.788
1802.32	0.79
1810.75	0.79
1819.18	0.794
1827.61	0.791
1836.05	0.79
1844.48	0.788
1852.91	0.785
1861.34	0.781
1869.78	0.779
1878.21	0.773
1886.64	0.772
1895.07	0.763
1903.5	0.757
1911.94	0.733
1920.37	0.743
1928.8	0.751
1937.23	0.751
1945.67	0.73
1954.1	0.728
1962.53	0.742
1970.96	0.737
1979.39	0.715
1987.83	0.709
1996.26	0.739
2004.69	0.7453
2013.12	0.746
2021.56	0.746
2029.99	0.746
2038.42	0.7457
2046.85	0.745
2055.29	0.743
2063.72	0.7399
2072.15	0.7321
2080.58	0.7263
2089.01	0.7186
2097.45	0.718
2105.88	0.719
2114.31	0.721
2122.74	0.7237
2131.18	0.7241
2139.61	0.725
2148.04	0.7244
2156.47	0.7211
2164.9	0.7187
2173.34	0.7119
2181.77	0.7078
2190.2	0.707
2198.63	0.707
2207.07	0.7078
2215.5	0.709
2223.93	0.71
2232.36	0.71
2240.8	0.71
2249.23	0.71
2257.66	0.7063
2266.09	0.7025
2274.52	0.6963
2282.96	0.6883
2291.39	0.688
2299.82	0.686
2308.25	0.685
2316.69	0.685
2325.12	0.685
2333.55	0.685
2341.98	0.6811
2350.41	0.6775
2358.85	0.677
2367.28	0.676
2375.71	0.676
2384.14	0.6715
2392.58	0.668
2401.01	0.6647
2409.44	0.6615
2417.87	0.6582
2426.31	0.656
2434.74	0.655
2443.17	0.655
2451.6	0.655
2460.03	0.6529
2468.47	0.6514
2476.9	0.6494
2485.33	0.6435
2493.76	0.6379
2502.2	0.635
2510.63	0.635
2519.06	0.635
2527.49	0.6352
2535.92	0.637
2544.36	0.637
2552.79	0.637
2561.22	0.6334
2569.65	0.6272
2578.09	0.6211
2586.52	0.6172
2594.95	0.6126
2603.38	0.6076
2611.82	0.6043
2620.25	0.6022
2628.68	0.601
2637.11	0.601
2645.54	0.601
2653.98	0.601
2662.41	0.599
2670.84	0.599
2679.27	0.599
2687.71	0.599
2696.14	0.598
2704.57	0.596
2713	0.596
2721.43	0.596
2729.87	0.596
2738.3	0.596
2746.73	0.5953
2755.16	0.595
2763.6	0.593
2772.03	0.592
2780.46	0.587
2788.89	0.5859
2797.33	0.5807
2805.76	0.5754
2814.19	0.5671
2822.62	0.5567
2831.05	0.5429
2839.49	0.5261
2847.92	0.5148
2856.35	0.5121
2864.78	0.5143
2873.22	0.517
2881.65	0.517
2890.08	0.5138
2898.51	0.5086
2906.94	0.5032
2915.38	0.4991
2923.81	0.4969
2932.24	0.4906
2940.67	0.4869
2949.11	0.4766
2957.54	0.473
2965.97	0.4726
2974.4	0.4707
2982.84	0.47
2991.27	0.4768
2999.7	0.4882
3008.13	0.4927
3016.56	0.496
3025	0.496
3033.43	0.4936
3041.86	0.493
3050.29	0.494
3058.73	0.4938
3067.16	0.493
3075.59	0.491
3084.02	0.4881
3092.45	0.485
3100.89	0.484
3109.32	0.484
3117.75	0.484
3126.18	0.485
3134.62	0.487
3143.05	0.488
3151.48	0.49
3159.91	0.49
3168.35	0.49
3176.78	0.49
3185.21	0.488
3193.64	0.4877
3202.07	0.4859
3210.51	0.4842
3218.94	0.482
3227.37	0.481
3235.8	0.481
3244.24	0.481
3252.67	0.479
3261.1	0.478
3269.53	0.4738
3277.97	0.4703
3286.4	0.469
3294.83	0.4683
3303.26	0.467
3311.69	0.467
3320.13	0.466
3328.56	0.4636
3336.99	0.4604
3345.42	0.4571
3353.86	0.4537
3362.29	0.4502
3370.72	0.4467
3379.15	0.4432
3387.58	0.4386
3396.02	0.4366
3404.45	0.436
3412.88	0.4331
3421.31	0.4296
3429.75	0.4261
3438.18	0.425
3446.61	0.424
3455.04	0.4218
3463.48	0.42
3471.91	0.4168
3480.34	0.415
3488.77	0.4128
3497.2	0.41
3505.64	0.41
3514.07	0.41
3522.5	0.41
3530.93	0.41
3539.37	0.412
3547.8	0.412
3556.23	0.412
3564.66	0.412
3573.09	0.412
3581.53	0.412
3589.96	0.4123
3598.39	0.413
3606.82	0.413
3615.26	0.415
3623.69	0.4153
3632.12	0.418
3640.55	0.419
3648.99	0.4211
3657.42	0.422
3665.85	0.424
3674.28	0.424
3682.71	0.424
3691.15	0.424
3699.58	0.424
3708.01	0.424
3716.44	0.424
3724.88	0.424
3733.31	0.425
3741.74	0.425
3750.17	0.425
3758.6	0.425
3767.04	0.425
3775.47	0.425
3783.9	0.425
3792.33	0.425
3800.77	0.424
3809.2	0.424
3817.63	0.422
3826.06	0.421
3834.5	0.421
3842.93	0.419
3851.36	0.418
3859.79	0.418
3868.22	0.416
3876.66	0.415
3885.09	0.413
3893.52	0.412
3901.95	0.41
3910.39	0.407
3918.82	0.4067
3927.25	0.406
3935.68	0.4032
3944.11	0.403
3952.55	0.401
3960.98	0.4004
3969.41	0.4
3977.84	0.3979
3986.28	0.3964
