Infrared Spectrum: N,N'-DIETHYLCARBANILIDE
Formula: C17 H20 N2 O
CAS: 85-98-3
State: SOLID (3 mg / 300 mg KBr PELLET)
Class: COBLENTZ
Instrument: PERKIN-ELMER
Sampling: TRANSMISSION
Resolution: 4
Origin: AIR MAT. LAB., WRIGHT-PAT. AFB
1/CM	TRANSMITTANCE
216.216	0.358
225.675	0.368
235.135	0.401
244.594	0.416
254.054	0.421
263.513	0.5069
272.973	0.576
282.432	0.593
291.892	0.604
301.351	0.614
310.811	0.648
320.27	0.673
329.729	0.681
339.189	0.693
348.648	0.697
358.108	0.7
367.567	0.693
377.027	0.69
386.486	0.661
395.946	0.57
405.405	0.67
414.865	0.673
424.324	0.634
433.783	0.46
443.243	0.6196
452.702	0.642
462.162	0.62
471.621	0.668
481.081	0.5342
490.54	0.5869
500	0.688
509.459	0.695
518.919	0.69
528.378	0.675
537.837	0.649
547.297	0.5561
556.756	0.1012
566.216	0.6167
575.675	0.712
585.135	0.71
594.594	0.702
604.054	0.6541
613.513	0.358
622.973	0.588
632.432	0.71
641.891	0.5682
651.351	0.658
660.81	0.632
670.27	0.6021
679.729	0.5191
689.189	0.209
698.648	0.0939
708.108	0.5979
717.567	0.722
727.027	0.6881
736.486	0.5881
745.945	0.3061
755.405	0.1634
764.864	0.3816
774.324	0.4681
783.783	0.448
793.243	0.7509
802.702	0.758
812.162	0.751
821.621	0.7241
831.081	0.6925
840.54	0.609
850	0.744
859.459	0.736
868.918	0.73
878.378	0.73
887.837	0.72
897.297	0.693
906.756	0.641
916.216	0.678
925.675	0.6698
935.135	0.692
944.594	0.697
954.054	0.681
963.513	0.651
972.972	0.612
982.432	0.6
991.891	0.629
1001.35	0.605
1010.81	0.5531
1020.27	0.228
1029.73	0.566
1039.19	0.4411
1048.65	0.58
1058.11	0.538
1067.57	0.289
1077.03	0.4607
1086.49	0.1502
1095.95	0.519
1105.4	0.551
1114.86	0.439
1124.32	0.3721
1133.78	0.2849
1143.24	0.554
1152.7	0.477
1162.16	0.363
1171.62	0.4995
1181.08	0.4061
1190.54	0.473
1200	0.536
1209.46	0.51
1218.92	0.461
1228.38	0.4011
1237.84	0.2921
1247.3	0.177
1256.76	0.103
1266.22	0.218
1275.67	0.0491
1285.13	0.091
1294.59	0.037
1304.05	0.248
1313.51	0.2919
1322.97	0.4719
1332.43	0.4551
1341.89	0.355
1351.35	0.186
1360.81	0.2259
1370.27	0.0771
1379.73	0.076
1389.19	0.023
1398.65	0.049
1408.11	0.15
1417.57	0.2819
1427.03	0.2231
1436.49	0.197
1445.95	0.082
1455.4	0.116
1464.86	0.301
1474.32	0.274
1483.78	0.1112
1493.24	0.043
1502.7	0.4259
1512.16	0.4779
1521.62	0.489
1531.08	0.475
1540.54	0.468
1550	0.451
1559.46	0.443
1568.92	0.34
1578.38	0.1313
1587.84	0.199
1597.3	0.099
1606.76	0.27
1616.22	0.213
1625.67	0.1161
1635.13	0.018
1644.59	0.04
1654.05	0.062
1663.51	0.199
1672.97	0.3509
1682.43	0.416
1691.89	0.487
1701.35	0.5489
1710.81	0.602
1720.27	0.627
1729.73	0.605
1739.19	0.604
1748.65	0.658
1758.11	0.681
1767.57	0.685
1777.03	0.692
1786.49	0.692
1795.95	0.656
1805.4	0.673
1814.86	0.692
1824.32	0.678
1833.78	0.69
1843.24	0.693
1852.7	0.693
1862.16	0.664
1871.62	0.62
1881.08	0.651
1890.54	0.67
1900	0.678
1909.46	0.685
1918.92	0.681
1928.38	0.668
1937.84	0.675
1947.3	0.644
1956.76	0.626
1966.22	0.649
1975.67	0.654
1985.13	0.656
1994.59	0.671
2004.05	0.679
2013.51	0.681
2022.97	0.681
2032.43	0.68
2041.89	0.678
2051.35	0.671
2060.81	0.665
2070.27	0.661
2079.73	0.658
2089.19	0.654
2098.65	0.655
2108.11	0.661
2117.57	0.661
2127.03	0.659
2136.49	0.6545
2145.94	0.651
2155.4	0.649
2164.86	0.651
2174.32	0.651
2183.78	0.649
2193.24	0.642
2202.7	0.637
2212.16	0.636
2221.62	0.631
2231.08	0.631
2240.54	0.629
2250	0.628
2259.46	0.626
2268.92	0.624
2278.38	0.622
2287.84	0.615
2297.3	0.614
2306.76	0.6095
2316.22	0.609
2325.67	0.607
2335.13	0.604
2344.59	0.604
2354.05	0.604
2363.51	0.605
2372.97	0.605
2382.43	0.605
2391.89	0.604
2401.35	0.602
2410.81	0.6
2420.27	0.597
2429.73	0.597
2439.19	0.598
2448.65	0.602
2458.11	0.601
2467.57	0.6
2477.03	0.598
2486.49	0.593
2495.94	0.589
2505.4	0.585
2514.86	0.5825
2524.32	0.58
2533.78	0.574
2543.24	0.571
2552.7	0.569
2562.16	0.568
2571.62	0.567
2581.08	0.566
2590.54	0.568
2600	0.568
2609.46	0.566
2618.92	0.566
2628.38	0.568
2637.84	0.565
2647.3	0.565
2656.76	0.563
2666.21	0.561
2675.67	0.558
2685.13	0.5545
2694.59	0.551
2704.05	0.55
2713.51	0.548
2722.97	0.5445
2732.43	0.539
2741.89	0.541
2751.35	0.539
2760.81	0.536
2770.27	0.534
2779.73	0.529
2789.19	0.517
2798.65	0.511
2808.11	0.502
2817.57	0.498
2827.03	0.494
2836.49	0.487
2845.94	0.468
2855.4	0.4411
2864.86	0.345
2874.32	0.3722
2883.78	0.414
2893.24	0.405
2902.7	0.402
2912.16	0.3866
2921.62	0.329
2931.08	0.1991
2940.54	0.1702
2950	0.3038
2959.46	0.3041
2968.92	0.1628
2978.38	0.147
2987.84	0.2103
2997.3	0.374
3006.76	0.4475
3016.21	0.446
3025.67	0.3795
3035.13	0.3211
3044.59	0.382
3054.05	0.36
3063.51	0.333
3072.97	0.4579
3082.43	0.447
3091.89	0.456
3101.35	0.4868
3110.81	0.521
3120.27	0.522
3129.73	0.521
3139.19	0.519
3148.65	0.514
3158.11	0.509
3167.57	0.509
3177.03	0.508
3186.48	0.507
3195.94	0.505
3205.4	0.5
3214.86	0.498
3224.32	0.495
3233.78	0.494
3243.24	0.494
3252.7	0.4905
3262.16	0.478
3271.62	0.4675
3281.08	0.49
3290.54	0.49
3300	0.49
3309.46	0.488
3318.92	0.485
3328.38	0.482
3337.84	0.48
3347.3	0.476
3356.76	0.472
3366.21	0.468
3375.67	0.467
3385.13	0.4605
3394.59	0.458
3404.05	0.457
3413.51	0.455
3422.97	0.453
3432.43	0.453
3441.89	0.451
3451.35	0.451
3460.81	0.453
3470.27	0.453
3479.73	0.452
3489.19	0.451
3498.65	0.452
3508.11	0.455
3517.57	0.4555
3527.03	0.456
3536.48	0.458
3545.94	0.458
3555.4	0.46
3564.86	0.46
3574.32	0.461
3583.78	0.461
3593.24	0.46
3602.7	0.46
3612.16	0.458
3621.62	0.458
3631.08	0.46
3640.54	0.46
3650	0.461
3659.46	0.461
3668.92	0.458
3678.38	0.458
3687.84	0.456
3697.3	0.456
3706.75	0.453
3716.21	0.453
3725.67	0.452
3735.13	0.451
3744.59	0.451
3754.05	0.451
3763.51	0.451
3772.97	0.451
3782.43	0.451
3791.89	0.451
3801.35	0.45
3810.81	0.45
3820.27	0.448
3829.73	0.448
3839.19	0.446
3848.65	0.446
3858.11	0.445
3867.57	0.443
3877.03	0.443
3886.48	0.443
3895.94	0.441
3905.4	0.441
3914.86	0.439
3924.32	0.439
3933.78	0.437
3943.24	0.434
3952.7	0.434
3962.16	0.433
3971.62	0.432
3981.08	0.429
3990.54	0.428
