Infrared Spectrum: Methyl 3-amino-4-methylthiophene-2-carboxylate
Formula: C 7 H 9 N O 2 S
CAS: 85006-31-1
State: gas
Origin: EPA-IR VAPOR PHASE LIBRARY
1/CM	ABSORBANCE
549.9	0.0015187
559.547	0.0011887
569.193	0.00094892
578.84	0.000712
588.486	0.00096837
598.133	0.0009991
607.779	0.0008227
617.426	0.0008437
627.072	0.000779
636.719	0.00076
646.365	0.0007
656.012	0.00090395
665.658	0.00089948
675.305	0.00091928
684.951	0.00093237
694.598	0.0010401
704.245	0.0008156
713.891	0.0009277
723.538	0.00098113
733.184	0.0008649
742.831	0.00092402
752.477	0.0011379
762.124	0.0013638
771.77	0.002322
781.417	0.003442
791.063	0.002872
800.71	0.0017217
810.356	0.0010553
820.003	0.0010596
829.649	0.0011632
839.296	0.0012888
848.943	0.0013059
858.589	0.001825
868.236	0.001902
877.882	0.0011956
887.529	0.0008422
897.175	0.0007909
906.822	0.000775
916.468	0.0007921
926.115	0.000792
935.761	0.000829
945.408	0.000673
955.054	0.000649
964.701	0.000744
974.347	0.00098105
983.994	0.0011911
993.64	0.0012538
1003.29	0.0010815
1012.93	0.00098012
1022.58	0.00091319
1032.23	0.00093786
1041.87	0.0012033
1051.52	0.0016918
1061.17	0.002912
1070.81	0.003852
1080.46	0.002772
1090.11	0.0015505
1099.75	0.001731
1109.4	0.002692
1119.05	0.005532
1128.69	0.008372
1138.34	0.007432
1147.99	0.003782
1157.63	0.002332
1167.28	0.001874
1176.92	0.0017558
1186.57	0.002192
1196.22	0.002412
1205.86	0.0018578
1215.51	0.002592
1225.16	0.004452
1234.8	0.005712
1244.45	0.003272
1254.1	0.0014716
1263.74	0.0017314
1273.39	0.002632
1283.04	0.006652
1292.68	0.015342
1302.33	0.020172
1311.98	0.012352
1321.62	0.004132
1331.27	0.0018458
1340.92	0.001362
1350.56	0.0010957
1360.21	0.0010133
1369.86	0.0009913
1379.5	0.0012989
1389.15	0.0013142
1398.79	0.0012085
1408.44	0.0016999
1418.09	0.002122
1427.73	0.002622
1437.38	0.004332
1447.03	0.005702
1456.67	0.005942
1466.32	0.008242
1475.97	0.007212
1485.61	0.003152
1495.26	0.0017812
1504.91	0.0013911
1514.55	0.0011096
1524.2	0.001186
1533.85	0.0014567
1543.49	0.002532
1553.14	0.003732
1562.79	0.003342
1572.43	0.002292
1582.08	0.002302
1591.73	0.003322
1601.37	0.005622
1611.02	0.007502
1620.67	0.006192
1630.31	0.003212
1639.96	0.001952
1649.6	0.0015393
1659.25	0.0014967
1668.9	0.0018242
1678.54	0.003092
1688.19	0.007162
1697.84	0.012302
1707.48	0.010482
1717.13	0.005252
1726.78	0.004202
1736.42	0.002532
1746.07	0.0012351
1755.72	0.00092201
1765.36	0.0009605
1775.01	0.00088087
1784.66	0.000857
1794.3	0.0008365
1803.95	0.000859
1813.6	0.0007932
1823.24	0.0008
1832.89	0.0007896
1842.54	0.000719
1852.18	0.00068
1861.83	0.000667
1871.47	0.000591
1881.12	0.000636
1890.77	0.000581
1900.41	0.000672
1910.06	0.000675
1919.71	0.000592
1929.35	0.000625
1939	0.000658
1948.65	0.000614
1958.29	0.00069
1967.94	0.000645
1977.59	0.000674
1987.23	0.000737
1996.88	0.000675
2006.53	0.000644
2016.17	0.000632
2025.82	0.000671
2035.47	0.000702
2045.11	0.000647
2054.76	0.000719
2064.41	0.000737
2074.05	0.000709
2083.7	0.000719
2093.35	0.000695
2102.99	0.000701
2112.64	0.000738
2122.28	0.000701
2131.93	0.000689
2141.58	0.000699
2151.22	0.000738
2160.87	0.000725
2170.52	0.000737
2180.16	0.000741
2189.81	0.000685
2199.46	0.000719
2209.1	0.000617
2218.75	0.000709
2228.4	0.000719
2238.04	0.000664
2247.69	0.000715
2257.34	0.000696
2266.98	0.000751
2276.63	0.000691
2286.28	0.000638
2295.92	0.000671
2305.57	0.000737
2315.22	0.000673
2324.86	0.000688
2334.51	0.000684
2344.16	0.000676
2353.8	0.000692
2363.45	0.000707
2373.09	0.000688
2382.74	0.000656
2392.39	0.000713
2402.03	0.000692
2411.68	0.000585
2421.33	0.00076
2430.97	0.000688
2440.62	0.000674
2450.27	0.000712
2459.91	0.000687
2469.56	0.000604
2479.21	0.000649
2488.85	0.000638
2498.5	0.000707
2508.15	0.000715
2517.79	0.000718
2527.44	0.00072
2537.09	0.000746
2546.73	0.000701
2556.38	0.000711
2566.03	0.00071
2575.67	0.000715
2585.32	0.000723
2594.96	0.000749
2604.61	0.000713
2614.26	0.000744
2623.9	0.000693
2633.55	0.000689
2643.2	0.00075
2652.84	0.000672
2662.49	0.000611
2672.14	0.00066
2681.78	0.000724
2691.43	0.000662
2701.08	0.000682
2710.72	0.000732
2720.37	0.000749
2730.02	0.0007904
2739.66	0.000663
2749.31	0.00076
2758.96	0.000753
2768.6	0.000794
2778.25	0.00073
2787.9	0.000638
2797.54	0.000768
2807.19	0.000713
2816.84	0.0008113
2826.48	0.0009914
2836.13	0.0010254
2845.77	0.0011699
2855.42	0.001278
2865.07	0.0013644
2874.71	0.0015337
2884.36	0.0013762
2894.01	0.0014761
2903.65	0.0016261
2913.3	0.0016196
2922.95	0.001912
2932.59	0.002102
2942.24	0.002152
2951.89	0.002932
2961.53	0.003372
2971.18	0.002282
2980.83	0.0017987
2990.47	0.0016272
3000.12	0.0013763
3009.77	0.0013724
3019.41	0.0011669
3029.06	0.0011108
3038.71	0.0010634
3048.35	0.0008136
3058	0.000592
3067.64	0.000771
3077.29	0.0008528
3086.94	0.00073
3096.58	0.000682
3106.23	0.00062
3115.88	0.000478
3125.52	0.00045
3135.17	0.000704
3144.82	0.000464
3154.46	0.000554
3164.11	0.000431
3173.76	0.00044
3183.4	0.000407
3193.05	0.000243
3202.7	0.000266
3212.34	0.000251
3221.99	0.000375
3231.64	0.000364
3241.28	0.00032
3250.93	0.000355
3260.58	0.000349
3270.22	0.000128
3279.87	0.000282
3289.52	0.000226
3299.16	0.000293
3308.81	0.000281
3318.45	0.0004
3328.1	0.000143
3337.75	0.000363
3347.39	0.000299
3357.04	0.000562
3366.69	0.0012973
3376.33	0.001932
3385.98	0.001595
3395.63	0.0008156
3405.27	0.000564
3414.92	0.000444
3424.57	0.00038
3434.21	0.000295
3443.86	0.000153
3453.51	0.000309
3463.15	0.000418
3472.8	0.000701
3482.45	0.0008149
3492.09	0.0014584
3501.74	0.0015993
3511.39	0.0012909
3521.03	0.000757
3530.68	0.000577
3540.33	0.000488
3549.97	0.000303
3559.62	0.00034
3569.26	0.00025
3578.91	0.00029
3588.56	0.000362
3598.2	0.000349
3607.85	0.000356
3617.5	0.000396
3627.14	0.000389
3636.79	0.000362
3646.44	0.000505
3656.08	0.000404
3665.73	0.000351
3675.38	0.000501
3685.02	0.000323
3694.67	0.000436
3704.32	0.000439
3713.96	0.000483
3723.61	0.000318
3733.26	0.000433
3742.9	0.000532
3752.55	0.000506
3762.2	0.000403
3771.84	0.000344
3781.49	0.000473
3791.13	0.000456
3800.78	0.000412
3810.43	0.000391
3820.07	0.000499
3829.72	0.000505
3839.37	0.0005
3849.01	0.000421
3858.66	0.000488
3868.31	0.000542
3877.95	0.000639
3887.6	0.000629
3897.25	0.000475
3906.89	0.000501
3916.54	0.000565
3926.19	0.000552
3935.83	0.000498
3945.48	0.000662
3955.13	0.000478
3964.77	0.000573
3974.42	0.000511
3984.07	0.000617
3993.71	0.000527
