Infrared Spectrum: 4-Iodopentylbenzene
Formula: C 11 H 15 I
CAS: 85017-60-3
State: gas
Origin: EPA-IR VAPOR PHASE LIBRARY
1/CM	ABSORBANCE
549.8	0.000974
559.445	0.0007671
569.09	0.0006839
578.734	0.001449
588.379	0.003129
598.024	0.001439
607.669	0.001259
617.313	0.002639
626.958	0.001519
636.603	0.0007504
646.248	0.0005605
655.893	0.0004595
665.537	0.00087
675.182	0.0007137
684.827	0.0005361
694.472	0.0009362
704.116	0.002139
713.761	0.002169
723.406	0.001939
733.051	0.002529
742.695	0.003059
752.34	0.004389
761.985	0.006169
771.63	0.007569
781.275	0.011079
790.919	0.014049
800.564	0.013399
810.209	0.012179
819.854	0.013299
829.498	0.011459
839.143	0.006569
848.788	0.003979
858.433	0.002799
868.078	0.001869
877.722	0.001789
887.367	0.001679
897.012	0.001309
906.657	0.001289
916.301	0.001062
925.946	0.001179
935.591	0.002009
945.236	0.002049
954.88	0.001709
964.525	0.001729
974.17	0.002189
983.815	0.002319
993.46	0.005529
1003.1	0.034129
1012.75	0.032859
1022.39	0.003779
1032.04	0.001839
1041.68	0.002039
1051.33	0.003989
1060.97	0.015259
1070.62	0.005899
1080.26	0.002629
1089.91	0.002199
1099.55	0.002519
1109.2	0.003689
1118.84	0.003579
1128.49	0.002019
1138.13	0.001149
1147.78	0.0007775
1157.42	0.001119
1167.07	0.001299
1176.71	0.002739
1186.36	0.004399
1196	0.006629
1205.64	0.003549
1215.29	0.003229
1224.93	0.004319
1234.58	0.001999
1244.22	0.001379
1253.87	0.001279
1263.51	0.001599
1273.16	0.001389
1282.8	0.001849
1292.45	0.002169
1302.09	0.002769
1311.74	0.002769
1321.38	0.002899
1331.03	0.003849
1340.67	0.004439
1350.32	0.004419
1359.96	0.004109
1369.61	0.004239
1379.25	0.005459
1388.9	0.007389
1398.54	0.007869
1408.18	0.006169
1417.83	0.004209
1427.47	0.004219
1437.12	0.005979
1446.76	0.009529
1456.41	0.012819
1466.05	0.015389
1475.7	0.024349
1485.34	0.052349
1494.99	0.015709
1504.63	0.004669
1514.28	0.002689
1523.92	0.001789
1533.57	0.001429
1543.21	0.001129
1552.86	0.0010892
1562.5	0.001105
1572.15	0.001389
1581.79	0.002069
1591.44	0.002309
1601.08	0.001759
1610.73	0.001629
1620.37	0.001469
1630.01	0.001459
1639.66	0.001489
1649.3	0.001409
1658.95	0.0010755
1668.59	0.0008594
1678.24	0.0006428
1687.88	0.0006108
1697.53	0.0005416
1707.17	0.0004786
1716.82	0.0004945
1726.46	0.000461
1736.11	0.0005694
1745.75	0.0006678
1755.4	0.0007618
1765.04	0.0010895
1774.69	0.001999
1784.33	0.0009489
1793.98	0.0004424
1803.62	0.0004494
1813.27	0.0004001
1822.91	0.0004357
1832.55	0.000383
1842.2	0.0003987
1851.84	0.0005208
1861.49	0.0006284
1871.13	0.0009815
1880.78	0.001809
1890.42	0.002409
1900.07	0.001759
1909.71	0.0009063
1919.36	0.0005994
1929	0.0004495
1938.65	0.0003399
1948.29	0.0004875
1957.94	0.0003938
1967.58	0.0003737
1977.23	0.0003323
1986.87	0.0003004
1996.52	0.0002679
2006.16	0.0004031
2015.81	0.0004222
2025.45	0.0003924
2035.1	0.0004203
2044.74	0.0004674
2054.38	0.0004468
2064.03	0.0004895
2073.67	0.000475
2083.32	0.0003756
2092.96	0.0003474
2102.61	0.0004038
2112.25	0.000405
2121.9	0.0005076
2131.54	0.0004782
2141.19	0.0004326
2150.83	0.0003513
2160.48	0.0004444
2170.12	0.0004449
2179.77	0.0004141
2189.41	0.0003619
2199.06	0.0003713
2208.7	0.00042
2218.35	0.0003786
2227.99	0.0004593
2237.64	0.0004563
2247.28	0.0005422
2256.92	0.0005007
2266.57	0.0005845
2276.21	0.0005396
2285.86	0.0005696
2295.5	0.0006322
2305.15	0.0006946
2314.79	0.0005678
2324.44	0.0004577
2334.08	0.0004005
2343.73	0.0004504
2353.37	0.0004449
2363.02	0.0005417
2372.66	0.0006442
2382.31	0.0006668
2391.95	0.0004877
2401.6	0.0005227
2411.24	0.0004832
2420.89	0.0005154
2430.53	0.0005144
2440.18	0.0004595
2449.82	0.0005977
2459.47	0.0004613
2469.11	0.0004909
2478.75	0.0004481
2488.4	0.000437
2498.04	0.0004619
2507.69	0.000474
2517.33	0.0004648
2526.98	0.0006609
2536.62	0.0008241
2546.27	0.0008161
2555.91	0.0007513
2565.56	0.0008431
2575.2	0.0008788
2584.85	0.0010165
2594.49	0.0010154
2604.14	0.0008998
2613.78	0.0008116
2623.43	0.0008178
2633.07	0.0010486
2642.72	0.001219
2652.36	0.001259
2662.01	0.001219
2671.65	0.001269
2681.29	0.001319
2690.94	0.001209
2700.58	0.0011086
2710.23	0.001159
2719.87	0.001139
2729.52	0.001289
2739.16	0.001679
2748.81	0.001709
2758.45	0.001649
2768.1	0.001839
2777.74	0.001889
2787.39	0.002359
2797.03	0.002809
2806.68	0.003199
2816.32	0.004089
2825.97	0.005089
2835.61	0.007049
2845.26	0.011039
2854.9	0.021609
2864.55	0.035579
2874.19	0.035419
2883.84	0.031279
2893.48	0.025479
2903.12	0.026999
2912.77	0.037219
2922.41	0.060399
2932.06	0.093989
2941.7	0.094609
2951.35	0.060649
2960.99	0.053449
2970.64	0.056639
2980.28	0.030169
2989.93	0.015259
2999.57	0.010169
3009.22	0.009119
3018.86	0.011779
3028.51	0.013529
3038.15	0.010229
3047.8	0.008299
3057.44	0.007259
3067.09	0.007559
3076.73	0.008569
3086.38	0.007499
3096.02	0.004349
3105.67	0.002459
3115.31	0.001749
3124.95	0.001229
3134.6	0.001179
3144.24	0.001239
3153.89	0.0010662
3163.53	0.0010017
3173.18	0.0009505
3182.82	0.0008175
3192.47	0.0007516
3202.11	0.0006894
3211.76	0.0008605
3221.4	0.000433
3231.05	0.0004121
3240.69	0.000398
3250.34	0.0004107
3259.98	0.0004497
3269.63	0.0003023
3279.27	0.0003893
3288.92	0.000318
3298.56	0.0004227
3308.21	0.0002446
3317.85	0.0002501
3327.49	0.0002424
3337.14	0.0004035
3346.78	0.0003889
3356.43	0.0002602
3366.07	0.00018225
3375.72	0.00016612
3385.36	0.0003024
3395.01	0.00017685
3404.65	0.0003771
3414.3	0.00019059
3423.94	0.0002228
3433.59	0.0003404
3443.23	0.0002969
3452.88	0.0003229
3462.52	0.0004076
3472.17	0.0002577
3481.81	0.0002525
3491.46	0.0004081
3501.1	1.7e-05
3510.75	0.00018457
3520.39	0.0002573
3530.04	0.0002691
3539.68	0.00019696
3549.32	0.00018826
3558.97	0.0002672
3568.61	0.0001132
3578.26	0.00017973
3587.9	4.85e-05
3597.55	0.0003352
3607.19	0.0002896
3616.84	0.000468
3626.48	0.0003185
3636.13	0.0002199
3645.77	0.0003073
3655.42	0.0004213
3665.06	0.0002733
3674.71	0.000398
3684.35	0.0005213
3694	0.0005277
3703.64	0.0003834
3713.29	0.0006201
3722.93	0.0004669
3732.58	0.0003918
3742.22	0.0002664
3751.86	0.0002353
3761.51	0.0003978
3771.15	0.0002633
3780.8	0.0003254
3790.44	0.0002906
3800.09	0.000335
3809.73	0.0003728
3819.38	0.0004967
3829.02	0.0004864
3838.67	0.0002904
3848.31	0.0004006
3857.96	0.000442
3867.6	0.0004432
3877.25	0.0003352
3886.89	0.0002573
3896.54	0.0002709
3906.18	0.000243
3915.83	0.0003648
3925.47	0.0002392
3935.12	0.0003964
3944.76	0.0005702
3954.41	0.0003507
3964.05	0.0004231
3973.69	0.0004548
3983.34	0.0004366
3992.98	0.0004681
