Infrared Spectrum: 4-Fluoromethoxyacetophenone
Formula: C 9 H 7 F 3 O 2
CAS: 85013-98-5
State: gas
Origin: EPA-IR VAPOR PHASE LIBRARY
1/CM	ABSORBANCE
549.8	0.00952
559.445	0.00659
569.09	0.00795
578.734	0.01616
588.379	0.02847
598.024	0.03575
607.669	0.01915
617.313	0.0096
626.958	0.00713
636.603	0.00623
646.248	0.00731
655.893	0.0093
665.537	0.01635
675.182	0.02167
684.827	0.01947
694.472	0.0141
704.116	0.01264
713.761	0.00602
723.406	0.00537
733.051	0.00521
742.695	0.00598
752.34	0.00498
761.985	0.00436
771.63	0.00504
781.275	0.00536
790.919	0.00916
800.564	0.01969
810.209	0.02755
819.854	0.02608
829.498	0.02718
839.143	0.0345
848.788	0.03867
858.433	0.02869
868.078	0.01424
877.722	0.00728
887.367	0.00559
897.012	0.00538
906.657	0.00671
916.301	0.01292
925.946	0.02121
935.591	0.01897
945.236	0.03299
954.88	0.05027
964.525	0.02725
974.17	0.01509
983.815	0.01255
993.46	0.01153
1003.1	0.01561
1012.75	0.03907
1022.39	0.02949
1032.04	0.011
1041.68	0.00912
1051.33	0.01
1060.97	0.01558
1070.62	0.02617
1080.26	0.02216
1089.91	0.01651
1099.55	0.02043
1109.2	0.02565
1118.84	0.02491
1128.49	0.0233
1138.13	0.03171
1147.78	0.05457
1157.42	0.10114
1167.07	0.21476
1176.71	0.30195
1186.36	0.42037
1196	0.46228
1205.64	0.43625
1215.29	0.59532
1224.93	0.71108
1234.58	0.5131
1244.22	0.5077
1253.87	0.87126
1263.51	1.0678
1273.16	0.75796
1282.8	0.33185
1292.45	0.16654
1302.09	0.1017
1311.74	0.0658
1321.38	0.04076
1331.03	0.03084
1340.67	0.03208
1350.32	0.04513
1359.96	0.0779
1369.61	0.05745
1379.25	0.02718
1388.9	0.02096
1398.54	0.02314
1408.18	0.02856
1417.83	0.03001
1427.47	0.02296
1437.12	0.01834
1446.76	0.01509
1456.41	0.01267
1466.05	0.01137
1475.7	0.01165
1485.34	0.01586
1494.99	0.03672
1504.63	0.06862
1514.28	0.03459
1523.92	0.01657
1533.57	0.01408
1543.21	0.0133
1552.86	0.01406
1562.5	0.01548
1572.15	0.02095
1581.79	0.0378
1591.44	0.06753
1601.08	0.08088
1610.73	0.0523
1620.37	0.02787
1630.01	0.01878
1639.66	0.01485
1649.3	0.01467
1658.95	0.01785
1668.59	0.02065
1678.24	0.02454
1687.88	0.04754
1697.53	0.12158
1707.17	0.2203
1716.82	0.12539
1726.46	0.04125
1736.11	0.01827
1745.75	0.01481
1755.4	0.0137
1765.04	0.01055
1774.69	0.00819
1784.33	0.00738
1793.98	0.00626
1803.62	0.00554
1813.27	0.00506
1822.91	0.00476
1832.55	0.0042
1842.2	0.00385
1851.84	0.00444
1861.49	0.00487
1871.13	0.00512
1880.78	0.00536
1890.42	0.00628
1900.07	0.00584
1909.71	0.00575
1919.36	0.00496
1929	0.00457
1938.65	0.00444
1948.29	0.00429
1957.94	0.00418
1967.58	0.00441
1977.23	0.00422
1986.87	0.00401
1996.52	0.00416
2006.16	0.00432
2015.81	0.00523
2025.45	0.00553
2035.1	0.00567
2044.74	0.00452
2054.38	0.00435
2064.03	0.00485
2073.67	0.00486
2083.32	0.00434
2092.96	0.00417
2102.61	0.0037
2112.25	0.00388
2121.9	0.00383
2131.54	0.00368
2141.19	0.00397
2150.83	0.00373
2160.48	0.00319
2170.12	0.00328
2179.77	0.00337
2189.41	0.00359
2199.06	0.0028
2208.7	0.00242
2218.35	0.0021916
2227.99	0.0019247
2237.64	0.0018677
2247.28	0.0019672
2256.92	0.0018454
2266.57	0.0018587
2276.21	0.0021569
2285.86	0.00245
2295.5	0.00281
2305.15	0.00316
2314.79	0.00303
2324.44	0.00306
2334.08	0.00307
2343.73	0.00269
2353.37	0.0027
2363.02	0.00296
2372.66	0.00334
2382.31	0.00389
2391.95	0.00371
2401.6	0.00454
2411.24	0.00493
2420.89	0.00577
2430.53	0.00661
2440.18	0.00732
2449.82	0.00705
2459.47	0.00617
2469.11	0.0056
2478.75	0.00559
2488.4	0.00603
2498.04	0.00574
2507.69	0.00501
2517.33	0.00461
2526.98	0.00449
2536.62	0.0038
2546.27	0.00367
2555.91	0.0034
2565.56	0.00322
2575.2	0.00351
2584.85	0.0032
2594.49	0.00248
2604.14	0.00223
2613.78	0.0023394
2623.43	0.0019349
2633.07	0.0020241
2642.72	0.002146
2652.36	0.0021054
2662.01	0.0016703
2671.65	0.001924
2681.29	0.0019773
2690.94	0.0019849
2700.58	0.0019339
2710.23	0.0022241
2719.87	0.0016119
2729.52	0.0015175
2739.16	0.0016327
2748.81	0.0018003
2758.45	0.001591
2768.1	0.0017605
2777.74	0.0020587
2787.39	0.0017346
2797.03	0.0016139
2806.68	0.0017996
2816.32	0.0020096
2825.97	0.00244
2835.61	0.002146
2845.26	0.00251
2854.9	0.0029
2864.55	0.00254
2874.19	0.00254
2883.84	0.0019523
2893.48	0.0021579
2903.12	0.00246
2912.77	0.003
2922.41	0.00366
2932.06	0.00511
2941.7	0.00453
2951.35	0.00417
2960.99	0.00464
2970.64	0.00607
2980.28	0.00624
2989.93	0.00537
2999.57	0.00551
3009.22	0.0092
3018.86	0.01011
3028.51	0.00671
3038.15	0.00521
3047.8	0.00568
3057.44	0.00762
3067.09	0.00901
3076.73	0.00894
3086.38	0.00801
3096.02	0.00627
3105.67	0.00518
3115.31	0.00434
3124.95	0.00336
3134.6	0.0027
3144.24	0.0022305
3153.89	0.0021175
3163.53	0.0017739
3173.18	0.0022142
3182.82	0.00142251
3192.47	0.00241
3202.11	0.0016224
3211.76	0.001258
3221.4	0.001177
3231.05	0.00107
3240.69	0.00141768
3250.34	0.00139951
3259.98	0.001112
3269.63	0.001204
3279.27	0.0017643
3288.92	0.001165
3298.56	0.0017337
3308.21	0.001011
3317.85	0.0016484
3327.49	0.0013482
3337.14	0.0013615
3346.78	0.00144627
3356.43	0.00142131
3366.07	0.0020394
3375.72	0.00276
3385.36	0.00447
3395.01	0.00574
3404.65	0.00429
3414.3	0.00249
3423.94	0.0016346
3433.59	0.0018997
3443.23	0.0019726
3452.88	0.00114
3462.52	0.00138337
3472.17	0.00140454
3481.81	0.002239
3491.46	0.00144803
3501.1	0.0015465
3510.75	0.00139221
3520.39	0.00139066
3530.04	0.000982
3539.68	0.001103
3549.32	0.00137181
3558.97	0.00106
3568.61	0.001063
3578.26	0.0020929
3587.9	0.00137077
3597.55	0.0014884
3607.19	0.001271
3616.84	0.001048
3626.48	0.00093
3636.13	0.001256
3645.77	0.001176
3655.42	0.0016824
3665.06	0.0015025
3674.71	0.00139198
3684.35	0.001217
3694	0.0016104
3703.64	0.00147886
3713.29	0.000975
3722.93	0.000918
3732.58	0.0017242
3742.22	0.001243
3751.86	0.000763
3761.51	0.000884
3771.15	0.0016383
3780.8	0.0016702
3790.44	0.0019986
3800.09	0.0016354
3809.73	0.000713
3819.38	0.0015103
3829.02	0.0018435
3838.67	0.0015449
3848.31	0.001179
3857.96	0.000597
3867.6	0.0017971
3877.25	0.0014858
3886.89	0.001136
3896.54	0.001015
3906.18	0.000962
3915.83	0.001171
3925.47	0.000964
3935.12	0.00146483
3944.76	0.0017426
3954.41	0.00138525
3964.05	0.001123
3973.69	0.0013563
3983.34	0.00143366
3992.98	0.0012
