Infrared Spectrum: 2,5-Difluorophenylacetic acid
Formula: C 8 H 6 F 2 O 2
CAS: 85068-27-5
State: gas
Origin: EPA-IR VAPOR PHASE LIBRARY
1/CM	ABSORBANCE
549.8	0.019018
559.445	0.027408
569.09	0.022618
578.734	0.022508
588.379	0.040428
598.024	0.057448
607.669	0.048998
617.313	0.039788
626.958	0.033738
636.603	0.027118
646.248	0.021058
655.893	0.015678
665.537	0.012718
675.182	0.013058
684.827	0.014958
694.472	0.019118
704.116	0.025468
713.761	0.022778
723.406	0.017978
733.051	0.027628
742.695	0.038918
752.34	0.027848
761.985	0.012218
771.63	0.007278
781.275	0.006558
790.919	0.009258
800.564	0.021738
810.209	0.041078
819.854	0.030178
829.498	0.013678
839.143	0.010308
848.788	0.016218
858.433	0.024358
868.078	0.021258
877.722	0.015408
887.367	0.010548
897.012	0.006558
906.657	0.005528
916.301	0.005138
925.946	0.005458
935.591	0.006568
945.236	0.006178
954.88	0.010798
964.525	0.015018
974.17	0.008638
983.815	0.004398
993.46	0.003448
1003.1	0.002828
1012.75	0.002808
1022.39	0.003208
1032.04	0.003948
1041.68	0.004498
1051.33	0.007368
1060.97	0.009918
1070.62	0.015498
1080.26	0.027548
1089.91	0.044628
1099.55	0.074698
1109.2	0.128768
1118.84	0.154928
1128.49	0.113818
1138.13	0.084168
1147.78	0.065458
1157.42	0.047818
1167.07	0.046468
1176.71	0.066908
1186.36	0.081508
1196	0.077958
1205.64	0.079098
1215.29	0.096968
1224.93	0.088978
1234.58	0.056168
1244.22	0.039078
1253.87	0.028868
1263.51	0.020898
1273.16	0.022228
1282.8	0.025208
1292.45	0.021848
1302.09	0.019028
1311.74	0.016428
1321.38	0.013978
1331.03	0.014888
1340.67	0.018638
1350.32	0.024828
1359.96	0.030948
1369.61	0.031798
1379.25	0.024548
1388.9	0.015698
1398.54	0.012848
1408.18	0.014408
1417.83	0.021828
1427.47	0.034568
1437.12	0.033358
1446.76	0.018008
1456.41	0.012678
1466.05	0.014098
1475.7	0.025998
1485.34	0.067198
1494.99	0.171858
1504.63	0.197818
1514.28	0.083148
1523.92	0.024148
1533.57	0.010968
1543.21	0.006058
1552.86	0.004118
1562.5	0.003898
1572.15	0.004668
1581.79	0.006938
1591.44	0.010288
1601.08	0.010638
1610.73	0.008878
1620.37	0.010388
1630.01	0.009868
1639.66	0.005328
1649.3	0.003398
1658.95	0.002998
1668.59	0.003358
1678.24	0.003708
1687.88	0.004498
1697.53	0.005368
1707.17	0.007038
1716.82	0.009938
1726.46	0.015388
1736.11	0.025048
1745.75	0.040058
1755.4	0.062458
1765.04	0.093298
1774.69	0.142458
1784.33	0.179978
1793.98	0.143248
1803.62	0.079398
1813.27	0.043418
1822.91	0.023618
1832.55	0.013198
1842.2	0.008898
1851.84	0.008278
1861.49	0.006398
1871.13	0.003948
1880.78	0.002888
1890.42	0.002478
1900.07	0.002248
1909.71	0.001868
1919.36	0.001738
1929	0.001678
1938.65	0.001598
1948.29	0.001578
1957.94	0.001748
1967.58	0.001788
1977.23	0.002068
1986.87	0.002178
1996.52	0.002268
2006.16	0.002188
2015.81	0.002318
2025.45	0.002108
2035.1	0.001748
2044.74	0.001538
2054.38	0.0013203
2064.03	0.0009957
2073.67	0.0009976
2083.32	0.0010175
2092.96	0.000964
2102.61	0.0009218
2112.25	0.0007944
2121.9	0.0008689
2131.54	0.0009141
2141.19	0.0009856
2150.83	0.0010681
2160.48	0.0009938
2170.12	0.001139
2179.77	0.001418
2189.41	0.0013769
2199.06	0.001458
2208.7	0.0014036
2218.35	0.001698
2227.99	0.001768
2237.64	0.001548
2247.28	0.001418
2256.92	0.0013946
2266.57	0.0013594
2276.21	0.0013574
2285.86	0.001365
2295.5	0.0013622
2305.15	0.001357
2314.79	0.0013386
2324.44	0.0012761
2334.08	0.001478
2343.73	0.0013339
2353.37	0.0012694
2363.02	0.0012141
2372.66	0.0011354
2382.31	0.0013169
2391.95	0.0012066
2401.6	0.0012541
2411.24	0.001428
2420.89	0.0014011
2430.53	0.001578
2440.18	0.001558
2449.82	0.001638
2459.47	0.001768
2469.11	0.001838
2478.75	0.001788
2488.4	0.001658
2498.04	0.0013366
2507.69	0.0010802
2517.33	0.0010796
2526.98	0.0009305
2536.62	0.0010218
2546.27	0.0008281
2555.91	0.0007937
2565.56	0.0008907
2575.2	0.000766
2584.85	0.0007844
2594.49	0.0008321
2604.14	0.0008127
2613.78	0.0006016
2623.43	0.0007092
2633.07	0.0006838
2642.72	0.0007159
2652.36	0.0006751
2662.01	0.0006629
2671.65	0.000782
2681.29	0.0007066
2690.94	0.0006572
2700.58	0.0007437
2710.23	0.0006278
2719.87	0.0007866
2729.52	0.0009117
2739.16	0.0007396
2748.81	0.0008513
2758.45	0.0006257
2768.1	0.0005972
2777.74	0.0008466
2787.39	0.0006807
2797.03	0.000826
2806.68	0.00049782
2816.32	0.0006755
2825.97	0.0007525
2835.61	0.0007326
2845.26	0.0012598
2854.9	0.0011022
2864.55	0.0008855
2874.19	0.0010905
2883.84	0.0013992
2893.48	0.001488
2903.12	0.001568
2912.77	0.001718
2922.41	0.002638
2932.06	0.003858
2941.7	0.005178
2951.35	0.004708
2960.99	0.003468
2970.64	0.002508
2980.28	0.001868
2989.93	0.0012541
2999.57	0.001508
3009.22	0.0013829
3018.86	0.0012616
3028.51	0.001518
3038.15	0.001518
3047.8	0.002068
3057.44	0.002398
3067.09	0.002678
3076.73	0.001878
3086.38	0.001878
3096.02	0.001898
3105.67	0.001718
3115.31	0.0010235
3124.95	0.0009311
3134.6	0.0010052
3144.24	0.0007452
3153.89	0.000636
3163.53	0.0008038
3173.18	0.0005697
3182.82	0.0008508
3192.47	0.0007484
3202.11	0.0005477
3211.76	0.000356
3221.4	0.0003381
3231.05	0.00042867
3240.69	0.0006145
3250.34	0.00043812
3259.98	0.0005469
3269.63	0.000141
3279.27	0.00050755
3288.92	0.0006018
3298.56	0.0005997
3308.21	0.0003834
3317.85	0.00049713
3327.49	0.0003732
3337.14	0.00043893
3346.78	0.0003666
3356.43	0.00026
3366.07	0.0004789
3375.72	0.0003653
3385.36	0.0003434
3395.01	0.000183
3404.65	0.000495
3414.3	0.0003633
3423.94	0.0005858
3433.59	0.00051086
3443.23	0.0005828
3452.88	0.00046869
3462.52	0.0006854
3472.17	0.000664
3481.81	0.00049178
3491.46	0.0009842
3501.1	0.001428
3510.75	0.001428
3520.39	0.002028
3530.04	0.003308
3539.68	0.005138
3549.32	0.008578
3558.97	0.018428
3568.61	0.062548
3578.26	0.077218
3587.9	0.027968
3597.55	0.009208
3607.19	0.005138
3616.84	0.002488
3626.48	0.001968
3636.13	0.0013041
3645.77	0.001099
3655.42	0.001
3665.06	0.0007225
3674.71	0.0007929
3684.35	0.00046293
3694	0.0006672
3703.64	0.0003601
3713.29	0.0006724
3722.93	0.0006443
3732.58	0.0006639
3742.22	0.0006772
3751.86	0.0007523
3761.51	0.00017
3771.15	0.0007075
3780.8	0.0006936
3790.44	0.00047552
3800.09	0.0007336
3809.73	0.0005882
3819.38	0.0008015
3829.02	0.00042042
3838.67	0.00045843
3848.31	0.0003756
3857.96	0.00051196
3867.6	0.00047305
3877.25	0.0005441
3886.89	0.0006195
3896.54	0.0006716
3906.18	0.0005636
3915.83	0.0007349
3925.47	0.0003716
3935.12	0.0009424
3944.76	0.000317
3954.41	0.0005671
3964.05	0.0006418
3973.69	0.0006347
3983.34	0.0006893
3992.98	0.0007421
