Infrared Spectrum: 2,6-Difluorophenylacetic acid
Formula: C 8 H 6 F 2 O 2
CAS: 85068-28-6
State: gas
Origin: EPA-IR VAPOR PHASE LIBRARY
1/CM	ABSORBANCE
549.8	0.0235
559.445	0.01488
569.09	0.00806
578.735	0.0072
588.38	0.00933
598.025	0.01268
607.67	0.01439
617.315	0.0152
626.96	0.017
636.605	0.0148
646.251	0.01072
655.896	0.00929
665.541	0.00763
675.186	0.00545
684.831	0.00493
694.476	0.00586
704.121	0.00487
713.766	0.00294
723.411	0.00286
733.056	0.00404
742.701	0.00454
752.346	0.0038
761.991	0.00569
771.636	0.01872
781.281	0.03596
790.926	0.01471
800.571	0.00327
810.216	0.00208
819.861	0.00211
829.507	0.00279
839.152	0.00411
848.797	0.00516
858.442	0.00441
868.087	0.00353
877.732	0.00354
887.377	0.00379
897.022	0.00354
906.667	0.00257
916.312	0.00204
925.957	0.0016888
935.602	0.0016356
945.247	0.001632
954.892	0.0017906
964.537	0.001766
974.182	0.00197
983.827	0.00234
993.472	0.00341
1003.12	0.00766
1012.76	0.02403
1022.41	0.03898
1032.05	0.02744
1041.7	0.00904
1051.34	0.007
1060.99	0.00854
1070.63	0.00918
1080.28	0.01056
1089.92	0.01501
1099.57	0.02437
1109.21	0.04814
1118.86	0.08176
1128.5	0.07497
1138.15	0.04166
1147.79	0.03196
1157.44	0.02519
1167.08	0.01894
1176.73	0.01329
1186.37	0.0117
1196.02	0.01409
1205.66	0.01524
1215.31	0.01356
1224.95	0.01461
1234.6	0.02222
1244.24	0.02082
1253.89	0.01153
1263.53	0.01652
1273.18	0.02631
1282.82	0.02167
1292.47	0.01178
1302.11	0.00781
1311.76	0.00618
1321.4	0.00528
1331.05	0.00586
1340.69	0.0077
1350.34	0.01053
1359.98	0.01435
1369.63	0.01453
1379.27	0.00953
1388.92	0.00567
1398.56	0.00416
1408.21	0.0043
1417.85	0.00562
1427.5	0.00642
1437.14	0.00556
1446.79	0.00691
1456.43	0.01611
1466.08	0.04055
1475.73	0.0474
1485.37	0.02548
1495.02	0.01202
1504.66	0.00473
1514.31	0.00266
1523.95	0.00243
1533.6	0.00295
1543.24	0.00462
1552.89	0.0068
1562.53	0.00876
1572.18	0.01012
1581.82	0.01398
1591.47	0.01803
1601.11	0.0179
1610.76	0.01733
1620.4	0.02187
1630.05	0.0169
1639.69	0.00593
1649.34	0.00287
1658.98	0.002
1668.63	0.0016593
1678.27	0.0017039
1687.92	0.00212
1697.56	0.00269
1707.21	0.00337
1716.85	0.00446
1726.5	0.00633
1736.14	0.01049
1745.79	0.01514
1755.43	0.01927
1765.08	0.02704
1774.72	0.05795
1784.37	0.09454
1794.01	0.07279
1803.66	0.03109
1813.3	0.01605
1822.95	0.01056
1832.59	0.00701
1842.24	0.0042
1851.88	0.00275
1861.53	0.00211
1871.17	0.0016342
1880.82	0.0013077
1890.46	0.0012458
1900.11	0.0017762
1909.75	0.0023
1919.4	0.0017339
1929.04	0.0009966
1938.69	0.00094306
1948.33	0.00096232
1957.98	0.0008495
1967.62	0.00090484
1977.27	0.0010211
1986.91	0.0010424
1996.56	0.00095
2006.2	0.0008526
2015.85	0.0008051
2025.49	0.000709
2035.14	0.000685
2044.78	0.000707
2054.43	0.000648
2064.07	0.000568
2073.72	0.000564
2083.36	0.000564
2093.01	0.000596
2102.65	0.000574
2112.3	0.000621
2121.94	0.00071
2131.59	0.000703
2141.23	0.000735
2150.88	0.000756
2160.52	0.000773
2170.17	0.000732
2179.81	0.000739
2189.46	0.0007
2199.1	0.00066
2208.75	0.000703
2218.39	0.000736
2228.04	0.000789
2237.68	0.00091367
2247.33	0.000764
2256.97	0.000786
2266.62	0.000837
2276.26	0.0008289
2285.91	0.0011105
2295.55	0.001226
2305.2	0.0011442
2314.84	0.0008857
2324.49	0.000764
2334.13	0.00079
2343.78	0.00088071
2353.42	0.0008601
2363.07	0.0008092
2372.72	0.000779
2382.36	0.000713
2392.01	0.00071
2401.65	0.000681
2411.3	0.000747
2420.94	0.000635
2430.59	0.000708
2440.23	0.000756
2449.88	0.000772
2459.52	0.000756
2469.17	0.0008475
2478.81	0.0008752
2488.46	0.0009985
2498.1	0.0010063
2507.75	0.00090747
2517.39	0.000742
2527.04	0.000771
2536.68	0.000713
2546.33	0.000753
2555.97	0.000645
2565.62	0.00062
2575.26	0.000536
2584.91	0.000517
2594.55	0.000572
2604.2	0.000611
2613.84	0.00058
2623.49	0.000475
2633.13	0.000576
2642.78	0.000555
2652.42	0.000544
2662.07	0.000587
2671.71	0.000607
2681.36	0.0005
2691	0.000526
2700.65	0.0005
2710.29	0.000533
2719.94	0.000522
2729.58	0.00055
2739.23	0.000606
2748.87	0.0005
2758.52	0.000498
2768.16	0.000512
2777.81	0.000471
2787.45	0.000523
2797.1	0.000482
2806.74	0.000375
2816.39	0.00049
2826.03	0.00049
2835.68	0.000496
2845.32	0.00047
2854.97	0.000375
2864.61	0.000355
2874.26	0.000425
2883.9	0.00049
2893.55	0.000538
2903.19	0.000571
2912.84	0.000718
2922.48	0.000762
2932.13	0.0010843
2941.77	0.0016077
2951.42	0.00237
2961.06	0.00232
2970.71	0.0015279
2980.35	0.000896144
2990	0.000691
2999.64	0.000599
3009.29	0.000692
3018.93	0.00092908
3028.58	0.0011652
3038.22	0.0013564
3047.87	0.0011489
3057.51	0.00096256
3067.16	0.0012717
3076.8	0.001799
3086.45	0.00245
3096.09	0.00206
3105.74	0.0011398
3115.38	0.000598
3125.03	0.000384
3134.67	0.000344
3144.32	0.000314
3153.96	0.00029
3163.61	0.000221
3173.25	0.00016
3182.9	0.00016
3192.54	0.000336
3202.19	0.000266
3211.83	0.0004
3221.48	0.000216
3231.12	0.000121
3240.77	0.000229
3250.41	0.000336
3260.06	0.00013
3269.7	0.000258
3279.35	0.000351
3289	0.000204
3298.64	0.000139
3308.29	0.000219
3317.93	0.000131
3327.58	0.000278
3337.22	0.000404
3346.87	0.000155
3356.51	0.000107
3366.16	0.000211
3375.8	0.000218
3385.45	0.000202
3395.09	0.000218
3404.74	0.000211
3414.38	7.6e-05
3424.03	0.000329
3433.67	0.000348
3443.32	0.000386
3452.96	0.000256
3462.61	0.000375
3472.25	0.000222
3481.9	0.000451
3491.54	0.000518
3501.19	0.000565
3510.83	0.000684
3520.48	0.0008238
3530.12	0.0012558
3539.77	0.001782
3549.41	0.00265
3559.06	0.0053
3568.7	0.0215
3578.35	0.0362
3587.99	0.01681
3597.64	0.00371
3607.28	0.00219
3616.93	0.0016752
3626.57	0.00094952
3636.22	0.00090415
3645.86	0.000672
3655.51	0.000728
3665.15	0.000568
3674.8	0.000474
3684.44	0.000299
3694.09	0.000298
3703.73	0.000334
3713.38	0.000328
3723.02	0.000494
3732.67	0.000294
3742.31	0.000256
3751.96	0.000352
3761.6	0.000383
3771.25	0.000278
3780.89	0.000567
3790.54	0.000297
3800.18	0.000526
3809.83	0.000584
3819.47	0.000406
3829.12	0.000357
3838.76	0.000435
3848.41	0.000452
3858.05	0.000491
3867.7	0.00026
3877.34	0.000467
3886.99	0.000558
3896.63	0.000263
3906.28	0.000383
3915.92	0.000313
3925.57	0.00044
3935.21	0.000437
3944.86	0.000569
3954.5	0.000524
3964.15	0.000413
3973.79	0.000298
3983.44	0.000401
3993.08	0.000477
