Infrared Spectrum: 3,5-Bis(trifluoromethyl)phenylacetic acid
Formula: C 10 H 6 F 6 O 2
CAS: 85068-33-3
State: gas
Origin: EPA-IR VAPOR PHASE LIBRARY
1/CM	ABSORBANCE
549.8	0.00151
559.445	0.00365
569.09	0.00401
578.734	0.00634
588.379	0.01352
598.024	0.01215
607.669	0.00747
617.313	0.00668
626.958	0.00717
636.603	0.00588
646.248	0.00622
655.893	0.00498
665.537	0.00433
675.182	0.00445
684.827	0.01511
694.472	0.0043
704.116	0.0079
713.761	0.00406
723.406	0.0014082
733.051	0.0018231
742.695	0.00264
752.34	0.0019567
761.985	0.0015839
771.63	0.00242
781.275	0.0014425
790.919	0.001805
800.564	0.001775
810.209	0.0015242
819.854	0.000719
829.498	0.00262
839.143	0.00541
848.788	0.00444
858.433	0.00268
868.078	0.00246
877.722	0.00242
887.367	0.00295
897.012	0.00577
906.657	0.00788
916.301	0.00482
925.946	0.00554
935.591	0.00382
945.236	0.00287
954.88	0.0023
964.525	0.00233
974.17	0.00215
983.815	0.0018315
993.46	0.0011171
1003.1	0.0015819
1012.75	0.0019956
1022.39	0.0015614
1032.04	0.0015568
1041.68	0.00102116
1051.33	0.0017355
1060.97	0.00254
1070.62	0.00428
1080.26	0.00582
1089.91	0.01077
1099.55	0.01879
1109.2	0.02625
1118.84	0.02891
1128.49	0.02369
1138.13	0.03006
1147.78	0.08442
1157.42	0.10464
1167.07	0.04074
1176.71	0.07529
1186.36	0.0825
1196	0.02827
1205.64	0.01277
1215.29	0.0097
1224.93	0.00789
1234.58	0.00803
1244.22	0.00832
1253.87	0.01152
1263.51	0.02046
1273.16	0.07725
1282.8	0.12724
1292.45	0.03295
1302.09	0.01256
1311.74	0.00748
1321.38	0.00608
1331.03	0.00559
1340.67	0.00653
1350.32	0.00815
1359.96	0.01363
1369.61	0.02877
1379.25	0.0309
1388.9	0.01131
1398.54	0.00484
1408.18	0.00352
1417.83	0.0037
1427.47	0.00317
1437.12	0.003
1446.76	0.00286
1456.41	0.00349
1466.05	0.00392
1475.7	0.00255
1485.34	0.0016264
1494.99	0.00102881
1504.63	0.0014727
1514.28	0.001588
1523.92	0.00103533
1533.57	0.000824
1543.21	0.001
1552.86	0.00083
1562.5	0.0012414
1572.15	0.0011943
1581.79	0.0015504
1591.44	0.0012217
1601.08	0.0015439
1610.73	0.00223
1620.37	0.00247
1630.01	0.00201
1639.66	0.0015426
1649.3	0.001672
1658.95	0.0015601
1668.59	0.0013764
1678.24	0.0012616
1687.88	0.0016961
1697.53	0.0018551
1707.17	0.00202
1716.82	0.00217
1726.46	0.0029
1736.11	0.00413
1745.75	0.00675
1755.4	0.01063
1765.04	0.01581
1774.69	0.02169
1784.33	0.02718
1793.98	0.0209
1803.62	0.01446
1813.27	0.00895
1822.91	0.00469
1832.55	0.00283
1842.2	0.00234
1851.84	0.0018056
1861.49	0.0016139
1871.13	0.0013322
1880.78	0.0011665
1890.42	0.00134
1900.07	0.0012835
1909.71	0.00108405
1919.36	0.0013805
1929	0.001176
1938.65	0.00104021
1948.29	0.0010575
1957.94	0.00110346
1967.58	0.0012388
1977.23	0.0013019
1986.87	0.0011488
1996.52	0.0011913
2006.16	0.0011973
2015.81	0.00103635
2025.45	0.0012237
2035.1	0.0014209
2044.74	0.0012456
2054.38	0.0011949
2064.03	0.00124
2073.67	0.00103516
2083.32	0.0012662
2092.96	0.00107893
2102.61	0.00102984
2112.25	0.0010993
2121.9	0.0013933
2131.54	0.0014599
2141.19	0.0010777
2150.83	0.0009986
2160.48	0.00109769
2170.12	0.0009705
2179.77	0.0012011
2189.41	0.001188
2199.06	0.0012477
2208.7	0.0014273
2218.35	0.001544
2227.99	0.0012261
2237.64	0.001474
2247.28	0.0016746
2256.92	0.0012569
2266.57	0.0013658
2276.21	0.0017381
2285.86	0.0016826
2295.5	0.0015471
2305.15	0.00110796
2314.79	0.0012436
2324.44	0.00110203
2334.08	0.001502
2343.73	0.0012259
2353.37	0.0015085
2363.02	0.0016833
2372.66	0.0016513
2382.31	0.0011448
2391.95	0.00083
2401.6	0.0011558
2411.24	0.0013881
2420.89	0.0015669
2430.53	0.0012117
2440.18	0.0012373
2449.82	0.000788
2459.47	0.0014571
2469.11	0.0013853
2478.75	0.0015829
2488.4	0.0014661
2498.04	0.0011138
2507.69	0.0015402
2517.33	0.000854
2526.98	0.001364
2536.62	0.0009957
2546.27	0.0011221
2555.91	0.0013992
2565.56	0.0013445
2575.2	0.00108551
2584.85	0.0014142
2594.49	0.0013032
2604.14	0.000866
2613.78	0.000875
2623.43	0.0012705
2633.07	0.0013942
2642.72	0.00108795
2652.36	0.0013563
2662.01	0.0014373
2671.65	0.0014347
2681.29	0.000861
2690.94	0.00109423
2700.58	0.0012445
2710.23	0.00107378
2719.87	0.000893
2729.52	0.000709
2739.16	0.0009225
2748.81	0.0014206
2758.45	0.0009975
2768.1	0.000759
2777.74	0.000826
2787.39	0.000828
2797.03	0.0013231
2806.68	0.001147
2816.32	0.0011751
2825.97	0.00105282
2835.61	0.00101099
2845.26	0.0013669
2854.9	0.00106581
2864.55	0.0011351
2874.19	0.0012119
2883.84	0.0014222
2893.48	0.001299
2903.12	0.000215
2912.77	0.0010577
2922.41	0.0012135
2932.06	0.0017277
2941.7	0.00218
2951.35	0.0018042
2960.99	0.001351
2970.64	0.0014052
2980.28	0.0016511
2989.93	0.0017509
2999.57	0.0011129
3009.22	0.0013148
3018.86	0.001419
3028.51	0.0012879
3038.15	0.0010971
3047.8	0.0012294
3057.44	0.000719
3067.09	0.0011123
3076.73	0.000861
3086.38	0.000496
3096.02	0.000833
3105.67	0.00223
3115.31	0.00100725
3124.95	0.0014384
3134.6	0.0019229
3144.24	0.00107266
3153.89	0.0015741
3163.53	0.0016644
3173.18	0.00110782
3182.82	0.0012326
3192.47	0.00077
3202.11	5.4e-05
3211.76	0.000712
3221.4	0.000501
3231.05	0.0016003
3240.69	0.000445
3250.34	0.0009265
3259.98	0.00043
3269.63	0.0012098
3279.27	0.000528
3288.92	0.000887
3298.56	0.000699
3308.21	0.000866
3317.85	0.0013604
3327.49	0.0012624
3337.14	0.000868
3346.78	0.0012453
3356.43	0.0016299
3366.07	0.000449
3375.72	0.0012577
3385.36	0.00105223
3395.01	0.0011385
3404.65	0.000697
3414.3	0.0011156
3423.94	0.0018341
3433.59	0.0015852
3443.23	0.000763
3452.88	0.0011921
3462.52	0.000548
3472.17	0.000782
3481.81	0.000876
3491.46	0.000481
3501.1	0.0009498
3510.75	0.00206
3520.39	0.001336
3530.04	0.0015309
3539.68	0.0014852
3549.32	0.00257
3558.97	0.00421
3568.61	0.01448
3578.26	0.01145
3587.9	0.00395
3597.55	0.00256
3607.19	0.0017491
3616.84	0.0013664
3626.48	0.0018483
3636.13	0.000731
3645.77	0.00105855
3655.42	0.000205
3665.06	0.0009421
3674.71	0.0011694
3684.35	0.000745
3694	0.000861
3703.64	0.0014781
3713.29	0.000614
3722.93	0.0012122
3732.58	0.0011505
3742.22	0.0009444
3751.86	0.0011796
3761.51	0.0012347
3771.15	0.000788
3780.8	0.000799
3790.44	0.000548
3800.09	0.0013476
3809.73	0.00106345
3819.38	0.000645
3829.02	0.0013629
3838.67	0.000794
3848.31	0.00089
3857.96	0.0009513
3867.6	0.000764
3877.25	0.00066
3886.89	0.0014426
3896.54	0.0013457
3906.18	0.000527
3915.83	0.0019507
3925.47	0.000854
3935.12	0.0012043
3944.76	0.0013643
3954.41	0.000718
3964.05	0
3973.69	0.000726
3983.34	0.000753
3992.98	0.000872
