Infrared Spectrum: 2,5-Difluorobenzophenone
Formula: C 13 H 8 F 2 O
CAS: 85068-36-6
State: gas
Origin: EPA-IR VAPOR PHASE LIBRARY
1/CM	ABSORBANCE
549.8	0.003957
559.445	0.002907
569.09	0.003037
578.734	0.004167
588.379	0.005777
598.024	0.006427
607.669	0.006337
617.313	0.007397
626.958	0.009597
636.603	0.021777
646.248	0.043437
655.893	0.016307
665.537	0.008847
675.182	0.016437
684.827	0.055127
694.472	0.099167
704.116	0.066357
713.761	0.032497
723.406	0.029797
733.051	0.030717
742.695	0.027117
752.34	0.041287
761.985	0.031067
771.63	0.014857
781.275	0.010267
790.919	0.018387
800.564	0.049117
810.209	0.055397
819.854	0.059197
829.498	0.026287
839.143	0.016177
848.788	0.031757
858.433	0.089037
868.078	0.065407
877.722	0.031147
887.367	0.031487
897.012	0.014077
906.657	0.006247
916.301	0.005647
925.946	0.006257
935.591	0.004757
945.236	0.004427
954.88	0.006457
964.525	0.014067
974.17	0.028247
983.815	0.019287
993.46	0.007197
1003.1	0.007277
1012.75	0.003107
1022.39	0.006487
1032.04	0.005697
1041.68	0.002777
1051.33	0.003767
1060.97	0.005187
1070.62	0.006207
1080.26	0.004447
1089.91	0.005037
1099.55	0.007527
1109.2	0.007817
1118.84	0.019827
1128.49	0.026477
1138.13	0.010767
1147.78	0.007267
1157.42	0.010947
1167.07	0.019687
1176.71	0.049747
1186.36	0.078647
1196	0.095747
1205.64	0.069567
1215.29	0.053627
1224.93	0.064947
1234.58	0.087247
1244.22	0.110717
1253.87	0.100057
1263.51	0.104357
1273.16	0.148597
1282.8	0.108967
1292.45	0.117577
1302.09	0.087807
1311.74	0.058047
1321.38	0.036177
1331.03	0.013817
1340.67	0.009127
1350.32	0.006047
1359.96	0.005547
1369.61	0.007357
1379.25	0.008327
1388.9	0.009927
1398.54	0.020937
1408.18	0.080647
1417.83	0.137157
1427.47	0.044527
1437.12	0.023967
1446.76	0.048947
1456.41	0.043667
1466.05	0.041377
1475.7	0.100167
1485.34	0.212057
1494.99	0.189367
1504.63	0.078507
1514.28	0.027617
1523.92	0.013457
1533.57	0.010087
1543.21	0.008587
1552.86	0.008387
1562.5	0.010277
1572.15	0.016927
1581.79	0.028997
1591.44	0.037367
1601.08	0.035447
1610.73	0.018877
1620.37	0.016907
1630.01	0.014077
1639.66	0.013267
1649.3	0.014627
1658.95	0.020897
1668.59	0.038967
1678.24	0.089727
1687.88	0.157557
1697.53	0.121427
1707.17	0.058087
1716.82	0.029087
1726.46	0.017617
1736.11	0.012347
1745.75	0.009227
1755.4	0.007857
1765.04	0.007137
1774.69	0.005647
1784.33	0.003907
1793.98	0.003917
1803.62	0.005317
1813.27	0.005117
1822.91	0.003667
1832.55	0.002687
1842.2	0.002427
1851.84	0.003627
1861.49	0.006507
1871.13	0.005337
1880.78	0.002637
1890.42	0.003377
1900.07	0.003737
1909.71	0.003817
1919.36	0.002807
1929	0.001977
1938.65	0.002257
1948.29	0.003457
1957.94	0.004047
1967.58	0.004137
1977.23	0.003077
1986.87	0.002437
1996.52	0.002387
2006.16	0.002147
2015.81	0.001657
2025.45	0.001387
2035.1	0.001507
2044.74	0.001707
2054.38	0.001797
2064.03	0.001787
2073.67	0.001497
2083.32	0.001307
2092.96	0.001527
2102.61	0.001447
2112.25	0.001277
2121.9	0.0008924
2131.54	0.0009357
2141.19	0.0008457
2150.83	0.0007719
2160.48	0.0008328
2170.12	0.0009593
2179.77	0.0008228
2189.41	0.0008729
2199.06	0.0008908
2208.7	0.0010524
2218.35	0.001217
2227.99	0.0010432
2237.64	0.0009426
2247.28	0.0009264
2256.92	0.0009773
2266.57	0.0010138
2276.21	0.0010863
2285.86	0.001197
2295.5	0.0011406
2305.15	0.001247
2314.79	0.001437
2324.44	0.001817
2334.08	0.001687
2343.73	0.002087
2353.37	0.002127
2363.02	0.001757
2372.66	0.001767
2382.31	0.001537
2391.95	0.001287
2401.6	0.0011021
2411.24	0.0010696
2420.89	0.001417
2430.53	0.001437
2440.18	0.001607
2449.82	0.001627
2459.47	0.001727
2469.11	0.001757
2478.75	0.001597
2488.4	0.001607
2498.04	0.001547
2507.69	0.001367
2517.33	0.001217
2526.98	0.0011652
2536.62	0.0010325
2546.27	0.000856
2555.91	0.0010311
2565.56	0.0010545
2575.2	0.001237
2584.85	0.0011704
2594.49	0.001327
2604.14	0.0011357
2613.78	0.0008994
2623.43	0.0010248
2633.07	0.0006622
2642.72	0.0006901
2652.36	0.000524
2662.01	0.0006359
2671.65	0.0007263
2681.29	0.0007252
2690.94	0.0008735
2700.58	0.0008267
2710.23	0.0010916
2719.87	0.0011189
2729.52	0.0011824
2739.16	0.000876
2748.81	0.0007196
2758.45	0.0006444
2768.1	0.0009638
2777.74	0.0007592
2787.39	0.000906
2797.03	0.0008296
2806.68	0.0005352
2816.32	0.0010448
2825.97	0.0011718
2835.61	0.0011803
2845.26	0.0011781
2854.9	0.001317
2864.55	0.001257
2874.19	0.001707
2883.84	0.001457
2893.48	0.001427
2903.12	0.001297
2912.77	0.001287
2922.41	0.001164
2932.06	0.0008205
2941.7	0.0008507
2951.35	0.000862
2960.99	0.0008971
2970.64	0.0011441
2980.28	0.0009498
2989.93	0.001247
2999.57	0.001417
3009.22	0.002187
3018.86	0.004397
3028.51	0.008967
3038.15	0.012537
3047.8	0.011197
3057.44	0.013997
3067.09	0.026217
3076.73	0.031067
3086.38	0.022407
3096.02	0.016117
3105.67	0.008097
3115.31	0.003697
3124.95	0.002167
3134.6	0.001487
3144.24	0.001367
3153.89	0.001507
3163.53	0.001477
3173.18	0.0009694
3182.82	0.0006765
3192.47	0.0006897
3202.11	0.0005244
3211.76	0.00029043
3221.4	0.0005647
3231.05	0.0006244
3240.69	0.000436
3250.34	0.0005556
3259.98	0.0006171
3269.63	0.0006979
3279.27	0.0008066
3288.92	0.000603
3298.56	0.0006817
3308.21	0.0008463
3317.85	0.0009315
3327.49	0.0009727
3337.14	0.001287
3346.78	0.002097
3356.43	0.002257
3366.07	0.002257
3375.72	0.001927
3385.36	0.001567
3395.01	0.000873
3404.65	0.0008194
3414.3	0.0006269
3423.94	0.0007972
3433.59	0.0005236
3443.23	0.0005135
3452.88	0.0006848
3462.52	0.0004704
3472.17	0.0007142
3481.81	0.0004864
3491.46	0.0003296
3501.1	0.0004186
3510.75	0.0005052
3520.39	0.0003249
3530.04	0.0003576
3539.68	0.000454
3549.32	0.0005301
3558.97	0.0006737
3568.61	0.0004735
3578.26	0.0003294
3587.9	0.0003173
3597.55	0.0003505
3607.19	0.0004088
3616.84	0.0003271
3626.48	0.00076
3636.13	0.0005564
3645.77	0.0006177
3655.42	0.0004344
3665.06	0.0003835
3674.71	0.0004582
3684.35	0.0005596
3694	0.0006438
3703.64	0.0009346
3713.29	0.0010501
3722.93	0.0004083
3732.58	0.0006881
3742.22	0.0006241
3751.86	0.0005336
3761.51	0.0008378
3771.15	0.0008158
3780.8	0.0006783
3790.44	0.0005929
3800.09	0.0004256
3809.73	0.0005122
3819.38	0.0005827
3829.02	0.0005905
3838.67	0.0006222
3848.31	0.0004443
3857.96	0.0005472
3867.6	0.0005588
3877.25	0.0003568
3886.89	0.0006935
3896.54	0.0005239
3906.18	0.0004729
3915.83	0.0004582
3925.47	0.0006535
3935.12	0.00023209
3944.76	0.0007108
3954.41	0.0003861
3964.05	0.0004858
3973.69	0.0003513
3983.34	0.0004383
3992.98	0
