Infrared Spectrum: 2,4-Difluoropropiophenone
Formula: C 9 H 8 F 2 O
CAS: 85068-30-0
State: gas
Origin: EPA-IR VAPOR PHASE LIBRARY
1/CM	ABSORBANCE
549.9	0.003883
559.547	0.003383
569.193	0.003143
578.84	0.003243
588.486	0.002923
598.133	0.003383
607.779	0.003363
617.426	0.003183
627.072	0.002173
636.719	0.0013267
646.365	0.0010556
656.012	0.0009658
665.658	0.0007488
675.305	0.0007187
684.951	0.0005777
694.598	0.0005963
704.245	0.00049176
713.891	0.0005745
723.538	0.0011616
733.184	0.002083
742.831	0.001923
752.477	0.0011124
762.124	0.0009938
771.77	0.0010188
781.417	0.001453
791.063	0.002533
800.71	0.003783
810.356	0.003753
820.003	0.003373
829.649	0.002783
839.296	0.005263
848.943	0.012003
858.589	0.012213
868.236	0.005233
877.882	0.001493
887.529	0.0009451
897.175	0.0009641
906.822	0.0013137
916.468	0.001893
926.115	0.003203
935.761	0.004973
945.408	0.005603
955.054	0.005823
964.701	0.015783
974.347	0.022623
983.994	0.008153
993.64	0.002793
1003.29	0.002983
1012.93	0.004263
1022.58	0.003663
1032.23	0.001903
1041.87	0.0014285
1051.52	0.001543
1061.17	0.002143
1070.81	0.003853
1080.46	0.006063
1090.11	0.009313
1099.75	0.017903
1109.4	0.018033
1119.05	0.008903
1128.69	0.007293
1138.34	0.013173
1147.99	0.011343
1157.63	0.004223
1167.28	0.003023
1176.92	0.004403
1186.57	0.010843
1196.22	0.020563
1205.86	0.017973
1215.51	0.010183
1225.16	0.012203
1234.8	0.023013
1244.45	0.024663
1254.1	0.019483
1263.74	0.021683
1273.39	0.017883
1283.04	0.011393
1292.68	0.009223
1302.33	0.008193
1311.98	0.006973
1321.62	0.005693
1331.27	0.005273
1340.92	0.006113
1350.56	0.007193
1360.21	0.006533
1369.86	0.004783
1379.5	0.004183
1389.15	0.004073
1398.79	0.004553
1408.44	0.008273
1418.09	0.014723
1427.73	0.016293
1437.38	0.009863
1447.03	0.005343
1456.67	0.005883
1466.32	0.008363
1475.97	0.007843
1485.61	0.009933
1495.26	0.014983
1504.91	0.009713
1514.55	0.003343
1524.2	0.002173
1533.85	0.001953
1543.49	0.002213
1553.14	0.003253
1562.79	0.005283
1572.43	0.008823
1582.08	0.014953
1591.73	0.024373
1601.37	0.038293
1611.02	0.046153
1620.67	0.032743
1630.31	0.016083
1639.96	0.008663
1649.6	0.006093
1659.25	0.005083
1668.9	0.004933
1678.54	0.006593
1688.19	0.012643
1697.84	0.026083
1707.48	0.031843
1717.13	0.019823
1726.78	0.009273
1736.42	0.005033
1746.07	0.003083
1755.72	0.001853
1765.36	0.0013235
1775.01	0.0010433
1784.66	0.0008612
1794.3	0.0006931
1803.95	0.0006146
1813.6	0.0005575
1823.24	0.00051703
1832.89	0.00052674
1842.54	0.00045724
1852.18	0.00047783
1861.83	0.000581
1871.47	0.0005951
1881.12	0.0006159
1890.77	0.0005625
1900.41	0.00050462
1910.06	0.0005495
1919.71	0.0005046
1929.35	0.000449351
1939	0.00043596
1948.65	0.0003783
1958.29	0.000316
1967.94	0.0003456
1977.59	0.000319
1987.23	0.000302
1996.88	0.000306
2006.53	0.000295
2016.17	0.000247
2025.82	0.000277
2035.47	0.000249
2045.11	0.000296
2054.76	0.000227
2064.41	0.000177
2074.05	0.000282
2083.7	0.000245
2093.35	0.000178
2102.99	0.000227
2112.64	0.000237
2122.28	0.000246
2131.93	0.000222
2141.58	0.000151
2151.22	0.000214
2160.87	0.000155
2170.52	0.000151
2180.16	0.000182
2189.81	0.00018
2199.46	0.000194
2209.1	0.000255
2218.75	0.000242
2228.4	0.000245
2238.04	0.000288
2247.69	0.000266
2257.34	0.000222
2266.98	0.000197
2276.63	0.000224
2286.28	0.000229
2295.92	0.000221
2305.57	0.000236
2315.22	0.000297
2324.86	0.0003755
2334.51	0.00053412
2344.16	0.00047182
2353.8	0.000379
2363.45	0.000306
2373.09	0.0003813
2382.74	0.0004131
2392.39	0.0003927
2402.03	0.0003845
2411.68	0.0003846
2421.33	0.000294
2430.97	0.000319
2440.62	0.000307
2450.27	0.000296
2459.91	0.000269
2469.56	0.000223
2479.21	0.000155
2488.85	0.000114
2498.5	0.000146
2508.15	0.000147
2517.79	0.000189
2527.44	0.000157
2537.09	0.000205
2546.73	0.000226
2556.38	0.000258
2566.03	0.0003819
2575.67	0.0003534
2585.32	0.000238
2594.96	0.000229
2604.61	0.00014
2614.26	0.000117
2623.9	8.1e-05
2633.55	0.000116
2643.2	9e-05
2652.84	6.9e-05
2662.49	7.3e-05
2672.14	9.8e-05
2681.78	0.000119
2691.43	0.000156
2701.08	0.00015
2710.72	0.000183
2720.37	0.000183
2730.02	0.000229
2739.66	0.000304
2749.31	0.000209
2758.96	0.000207
2768.6	0.000246
2778.25	0.00021
2787.9	0.000256
2797.54	0.000245
2807.19	0.000292
2816.84	0.000328
2826.48	0.00045569
2836.13	0.00045697
2845.77	0.00050518
2855.42	0.0006419
2865.07	0.0008134
2874.71	0.0013371
2884.36	0.002323
2894.01	0.003053
2903.65	0.002653
2913.3	0.002623
2922.95	0.003173
2932.59	0.003483
2942.24	0.004983
2951.89	0.006653
2961.53	0.004663
2971.18	0.004313
2980.83	0.006493
2990.47	0.007523
3000.12	0.004913
3009.77	0.002553
3019.41	0.001513
3029.06	0.0010652
3038.71	0.0007429
3048.35	0.000632
3058	0.000681
3067.64	0.0005431
3077.29	0.0008294
3086.94	0.0010479
3096.58	0.0010528
3106.23	0.0006909
3115.88	0.0003496
3125.52	0.00022
3135.17	0.000163
3144.82	0.0003
3154.46	0.000122
3164.11	0.000214
3173.76	0.000291
3183.4	0.000164
3193.05	0.000216
3202.7	0.0003607
3212.34	0.000159
3221.99	0.000216
3231.64	8.9e-05
3241.28	1e-05
3250.93	0.000223
3260.58	0.000179
3270.22	0.000191
3279.87	0.000247
3289.52	0.000187
3299.16	0.000241
3308.81	0.000213
3318.45	0.000246
3328.1	0.000319
3337.75	0.000333
3347.39	0.000299
3357.04	0.0003699
3366.69	0.00044079
3376.33	0.0005731
3385.98	0.0008
3395.63	0.0007778
3405.27	0.000687
3414.92	0.00053735
3424.57	0.0003972
3434.21	0.0004085
3443.86	0.0004182
3453.51	0.0003798
3463.15	0.000333
3472.8	0.000244
3482.45	0.000325
3492.09	0.0004233
3501.74	0.0003997
3511.39	0.0003565
3521.03	0.0003551
3530.68	0.00050752
3540.33	0.0003491
3549.97	0.00049749
3559.62	0.000335
3569.26	0.0003671
3578.91	0.00047499
3588.56	0.0003438
3598.2	0.000332
3607.85	0.0004301
3617.5	0.0003804
3627.14	0.0004042
3636.79	0.000312
3646.44	0.000447033
3656.08	0.00043471
3665.73	0.0004253
3675.38	0.0003981
3685.02	0.000336
3694.67	0.000313
3704.32	0.0003987
3713.96	0.000395
3723.61	0.000445424
3733.26	0.00043739
3742.9	0.000324
3752.55	0.000316
3762.2	0.00050195
3771.84	0.0003736
3781.49	0.0004079
3791.13	0.0003902
3800.78	0.0003705
3810.43	0.0003936
3820.07	0.00046086
3829.72	0.000328
3839.37	0.0003685
3849.01	0.000311
3858.66	0.000425
3868.31	0.0004254
3877.95	0.000255
3887.6	0.00031
3897.25	0.000313
3906.89	0.000266
3916.54	0.0003537
3926.19	0.00031
3935.83	0.0003889
3945.48	0.0003633
3955.13	0.000317
3964.77	0.000283
3974.42	0.000444566
3984.07	0.0004058
3993.71	0.0004253
