Infrared Spectrum: 3,5-Bis(trifluoromethyl)propiophenone
Formula: C 11 H 8 F 6 O
CAS: 85068-34-4
State: gas
Origin: EPA-IR VAPOR PHASE LIBRARY
1/CM	ABSORBANCE
549.8	0.00225
559.445	0.00532
569.09	0.00658
578.734	0.00658
588.379	0.00529
598.024	0.00403
607.669	0.0029
617.313	0.0033
626.958	0.00386
636.603	0.00391
646.248	0.00594
655.893	0.00861
665.537	0.01262
675.182	0.03805
684.827	0.09458
694.472	0.02807
704.116	0.03578
713.761	0.01791
723.406	0.01042
733.051	0.0047
742.695	0.00374
752.34	0.00267
761.985	0.00269
771.63	0.00233
781.275	0.00307
790.919	0.00419
800.564	0.00874
810.209	0.02049
819.854	0.02946
829.498	0.01221
839.143	0.02112
848.788	0.02846
858.433	0.0096
868.078	0.00381
877.722	0.00339
887.367	0.0047
897.012	0.02036
906.657	0.05398
916.301	0.01914
925.946	0.00926
935.591	0.00682
945.236	0.0069
954.88	0.00592
964.525	0.00462
974.17	0.00509
983.815	0.00342
993.46	0.00328
1003.1	0.00467
1012.75	0.00753
1022.39	0.00733
1032.04	0.00681
1041.68	0.0058
1051.33	0.00701
1060.97	0.0077
1070.62	0.0102
1080.26	0.01163
1089.91	0.01681
1099.55	0.032
1109.2	0.05352
1118.84	0.04624
1128.49	0.04696
1138.13	0.10491
1147.78	0.36748
1157.42	0.64476
1167.07	0.24043
1176.71	0.31257
1186.36	0.6059
1196	0.40287
1205.64	0.21951
1215.29	0.10964
1224.93	0.0683
1234.58	0.0557
1244.22	0.05384
1253.87	0.07197
1263.51	0.13898
1273.16	0.45903
1282.8	0.75261
1292.45	0.12964
1302.09	0.04741
1311.74	0.04121
1321.38	0.04276
1331.03	0.05577
1340.67	0.07071
1350.32	0.05174
1359.96	0.0353
1369.61	0.04511
1379.25	0.04955
1388.9	0.0268
1398.54	0.0139
1408.18	0.01014
1417.83	0.01088
1427.47	0.01133
1437.12	0.01213
1446.76	0.01663
1456.41	0.0182
1466.05	0.01615
1475.7	0.00969
1485.34	0.00594
1494.99	0.0051
1504.63	0.00479
1514.28	0.00429
1523.92	0.0038
1533.57	0.00429
1543.21	0.00408
1552.86	0.00384
1562.5	0.0036
1572.15	0.0039
1581.79	0.00445
1591.44	0.00681
1601.08	0.0113
1610.73	0.02084
1620.37	0.02232
1630.01	0.01023
1639.66	0.00638
1649.3	0.0057
1658.95	0.00602
1668.59	0.0075
1678.24	0.01108
1687.88	0.01957
1697.53	0.03336
1707.17	0.09676
1716.82	0.11646
1726.46	0.03435
1736.11	0.01637
1745.75	0.01238
1755.4	0.0067
1765.04	0.00397
1774.69	0.00322
1784.33	0.00328
1793.98	0.0032
1803.62	0.00365
1813.27	0.00513
1822.91	0.00693
1832.55	0.00567
1842.2	0.00422
1851.84	0.00338
1861.49	0.00312
1871.13	0.00301
1880.78	0.00265
1890.42	0.00192
1900.07	0.0015702
1909.71	0.0014311
1919.36	0.0014969
1929	0.0013865
1938.65	0.001301
1948.29	0.001372
1957.94	0.0013924
1967.58	0.0012633
1977.23	0.0014918
1986.87	0.0014811
1996.52	0.00203
2006.16	0.00202
2015.81	0.0015846
2025.45	0.001407
2035.1	0.0012682
2044.74	0.0011856
2054.38	0.0012223
2064.03	0.0010933
2073.67	0.0009509
2083.32	0.0012041
2092.96	0.0011456
2102.61	0.0013019
2112.25	0.0013632
2121.9	0.0014014
2131.54	0.0011865
2141.19	0.0010458
2150.83	0.0010792
2160.48	0.0010199
2170.12	0.0012952
2179.77	0.0013046
2189.41	0.001592
2199.06	0.0016221
2208.7	0.00203
2218.35	0.00188
2227.99	0.00204
2237.64	0.00188
2247.28	0.00192
2256.92	0.00244
2266.57	0.00232
2276.21	0.00284
2285.86	0.00292
2295.5	0.00306
2305.15	0.00277
2314.79	0.00205
2324.44	0.0024
2334.08	0.00219
2343.73	0.00236
2353.37	0.00232
2363.02	0.00256
2372.66	0.00252
2382.31	0.00203
2391.95	0.00207
2401.6	0.0013614
2411.24	0.0014778
2420.89	0.0011746
2430.53	0.001452
2440.18	0.0015175
2449.82	0.0011185
2459.47	0.0015098
2469.11	0.0014633
2478.75	0.0011654
2488.4	0.0010062
2498.04	0.000896
2507.69	0.0009783
2517.33	0.0009208
2526.98	0.0011574
2536.62	0.0013229
2546.27	0.0016521
2555.91	0.0015283
2565.56	0.0012739
2575.2	0.0008525
2584.85	0.0007644
2594.49	0.0010874
2604.14	0.0010357
2613.78	0.0012105
2623.43	0.0011619
2633.07	0.0010062
2642.72	0.0012459
2652.36	0.0010863
2662.01	0.0013851
2671.65	0.0006471
2681.29	0.0010549
2690.94	0.0010152
2700.58	0.0010409
2710.23	0.0009571
2719.87	0.0014086
2729.52	0.0014308
2739.16	0.0016478
2748.81	0.0012094
2758.45	0.0015783
2768.1	0.0015608
2777.74	0.0013652
2787.39	0.0012799
2797.03	0.001436
2806.68	0.00191
2816.32	0.0015641
2825.97	0.00239
2835.61	0.00236
2845.26	0.00252
2854.9	0.00294
2864.55	0.00386
2874.19	0.00516
2883.84	0.00753
2893.48	0.01042
2903.12	0.01112
2912.77	0.01496
2922.41	0.01523
2932.06	0.01199
2941.7	0.0129
2951.35	0.02185
2960.99	0.01528
2970.64	0.01279
2980.28	0.01917
2989.93	0.02927
2999.57	0.0172
3009.22	0.00883
3018.86	0.00639
3028.51	0.00451
3038.15	0.00382
3047.8	0.00296
3057.44	0.00307
3067.09	0.00312
3076.73	0.00381
3086.38	0.00557
3096.02	0.00472
3105.67	0.00276
3115.31	0.0024
3124.95	0.00167
3134.6	0.0013659
3144.24	0.0014758
3153.89	0.0013516
3163.53	0.0013265
3173.18	0.0013111
3182.82	0.001269
3192.47	0.0015155
3202.11	0.001324
3211.76	0.0011592
3221.4	0.0008977
3231.05	0.0012435
3240.69	0.0007078
3250.34	0.0006127
3259.98	0.0008538
3269.63	0.0009198
3279.27	0.0008834
3288.92	0.0010647
3298.56	0.0009073
3308.21	0.0010892
3317.85	0.0011661
3327.49	0.0005691
3337.14	0.0011183
3346.78	0.0008651
3356.43	0.0011099
3366.07	0.0010755
3375.72	0.001258
3385.36	0.0015061
3395.01	0.0021
3404.65	0.00248
3414.3	0.00259
3423.94	0.00198
3433.59	0.00073599
3443.23	0.0011799
3452.88	0.001032
3462.52	0.0012242
3472.17	0.000471
3481.81	0.0010573
3491.46	0.000894
3501.1	0.0007621
3510.75	0.000449
3520.39	0.00071797
3530.04	0.000449
3539.68	0.00075869
3549.32	0.0009993
3558.97	0.0010362
3568.61	0.00077
3578.26	0.0011216
3587.9	0.0008504
3597.55	0.0007661
3607.19	0.000517
3616.84	0.0011415
3626.48	0.0009181
3636.13	0.0009662
3645.77	0.0011277
3655.42	0.00068038
3665.06	0.0010004
3674.71	0.000395
3684.35	0.0007758
3694	0.000212
3703.64	0.00071391
3713.29	0.0011518
3722.93	0.000425
3732.58	0.0008006
3742.22	0.0016481
3751.86	0.001304
3761.51	0.0013796
3771.15	0.00069378
3780.8	0.0008873
3790.44	0.000543
3800.09	0.0008148
3809.73	0.000662863
3819.38	0.000521
3829.02	0.00073798
3838.67	0.00067058
3848.31	0.0010351
3857.96	0.0007826
3867.6	0.0010595
3877.25	0.000468
3886.89	0.000295
3896.54	0.0017
3906.18	0.0006279
3915.83	0.0011615
3925.47	0.0008714
3935.12	0.000396
3944.76	0.0010687
3954.41	0.00072538
3964.05	0.00072515
3973.69	0.0007654
3983.34	0.000476
3992.98	0.0012893
