Infrared Spectrum: 2,6-Difluoropropiophenone
Formula: C 9 H 8 F 2 O
CAS: 85068-31-1
State: gas
Origin: EPA-IR VAPOR PHASE LIBRARY
1/CM	ABSORBANCE
549.8	0.005905
559.445	0.005855
569.09	0.009315
578.734	0.012225
588.379	0.006715
598.024	0.003275
607.669	0.001595
617.313	0.000909
626.958	0.001128
636.603	0.001355
646.248	0.001935
655.893	0.001465
665.537	0.001415
675.182	0.001475
684.827	0.002315
694.472	0.003695
704.116	0.008445
713.761	0.014405
723.406	0.014285
733.051	0.010515
742.695	0.009115
752.34	0.007135
761.985	0.008425
771.63	0.019055
781.275	0.035315
790.919	0.041515
800.564	0.021085
810.209	0.007845
819.854	0.004185
829.498	0.003315
839.143	0.002395
848.788	0.002065
858.433	0.001735
868.078	0.001635
877.722	0.0010614
887.367	0.002045
897.012	0.002905
906.657	0.004425
916.301	0.008925
925.946	0.021745
935.591	0.040385
945.236	0.041135
954.88	0.023525
964.525	0.013925
974.17	0.015145
983.815	0.026515
993.46	0.051515
1003.1	0.068775
1012.75	0.058805
1022.39	0.035465
1032.04	0.020515
1041.68	0.014835
1051.33	0.014025
1060.97	0.017335
1070.62	0.019555
1080.26	0.016175
1089.91	0.010425
1099.55	0.005345
1109.2	0.003145
1118.84	0.004005
1128.49	0.002645
1138.13	0.002485
1147.78	0.003245
1157.42	0.004765
1167.07	0.008495
1176.71	0.011555
1186.36	0.017725
1196	0.027855
1205.64	0.039015
1215.29	0.041065
1224.93	0.049695
1234.58	0.056535
1244.22	0.040465
1253.87	0.020635
1263.51	0.025855
1273.16	0.055445
1282.8	0.062575
1292.45	0.026275
1302.09	0.011615
1311.74	0.009635
1321.38	0.010565
1331.03	0.013085
1340.67	0.017885
1350.32	0.019905
1359.96	0.014215
1369.61	0.008735
1379.25	0.008535
1388.9	0.008275
1398.54	0.006805
1408.18	0.008135
1417.83	0.011075
1427.47	0.013065
1437.12	0.017045
1446.76	0.031955
1456.41	0.088045
1466.05	0.136695
1475.7	0.077555
1485.34	0.020795
1494.99	0.010605
1504.63	0.007725
1514.28	0.006615
1523.92	0.007525
1533.57	0.010465
1543.21	0.014395
1552.86	0.016835
1562.5	0.020005
1572.15	0.026015
1581.79	0.037355
1591.44	0.047565
1601.08	0.049935
1610.73	0.078745
1620.37	0.099865
1630.01	0.052295
1639.66	0.013695
1649.3	0.008385
1658.95	0.007485
1668.59	0.007615
1678.24	0.010335
1687.88	0.015405
1697.53	0.023075
1707.17	0.043175
1716.82	0.089805
1726.46	0.120505
1736.11	0.077605
1745.75	0.035345
1755.4	0.017155
1765.04	0.009165
1774.69	0.005815
1784.33	0.004175
1793.98	0.003385
1803.62	0.003045
1813.27	0.003085
1822.91	0.003195
1832.55	0.003225
1842.2	0.002335
1851.84	0.001555
1861.49	0.001445
1871.13	0.001495
1880.78	0.001545
1890.42	0.001315
1900.07	0.001775
1909.71	0.003365
1919.36	0.003785
1929	0.001915
1938.65	0.0011417
1948.29	0.0009613
1957.94	0.0011902
1967.58	0.001255
1977.23	0.0011525
1986.87	0.0011976
1996.52	0.001355
2006.16	0.001225
2015.81	0.0010589
2025.45	0.0009461
2035.1	0.0009466
2044.74	0.0008654
2054.38	0.0009496
2064.03	0.0009027
2073.67	0.0008383
2083.32	0.0007892
2092.96	0.0009678
2102.61	0.000706
2112.25	0.0008805
2121.9	0.000969
2131.54	0.0007579
2141.19	0.0008403
2150.83	0.0006863
2160.48	0.0008136
2170.12	0.0008807
2179.77	0.0008191
2189.41	0.0008586
2199.06	0.0010899
2208.7	0.0008649
2218.35	0.0010835
2227.99	0.001315
2237.64	0.001385
2247.28	0.001385
2256.92	0.001395
2266.57	0.001745
2276.21	0.001915
2285.86	0.001715
2295.5	0.001715
2305.15	0.001455
2314.79	0.001505
2324.44	0.001275
2334.08	0.0010514
2343.73	0.0010507
2353.37	0.001225
2363.02	0.0010355
2372.66	0.0011582
2382.31	0.0010129
2391.95	0.001255
2401.6	0.00085
2411.24	0.0009005
2420.89	0.0007877
2430.53	0.0008838
2440.18	0.001245
2449.82	0.001255
2459.47	0.001265
2469.11	0.001285
2478.75	0.001475
2488.4	0.001245
2498.04	0.001365
2507.69	0.001645
2517.33	0.001785
2526.98	0.001475
2536.62	0.001225
2546.27	0.0010488
2555.91	0.0009193
2565.56	0.0008982
2575.2	0.0008563
2584.85	0.0006641
2594.49	0.0007077
2604.14	0.0005503
2613.78	0.0006671
2623.43	0.0007375
2633.07	0.0007087
2642.72	0.0005588
2652.36	0.0007942
2662.01	0.0010517
2671.65	0.0008186
2681.29	0.0008218
2690.94	0.0008465
2700.58	0.0009571
2710.23	0.001265
2719.87	0.001325
2729.52	0.001385
2739.16	0.002185
2748.81	0.002395
2758.45	0.001745
2768.1	0.001585
2777.74	0.001435
2787.39	0.001585
2797.03	0.001855
2806.68	0.001855
2816.32	0.001785
2825.97	0.002265
2835.61	0.002275
2845.26	0.002915
2854.9	0.002985
2864.55	0.003315
2874.19	0.004835
2883.84	0.007835
2893.48	0.011255
2903.12	0.011695
2912.77	0.010855
2922.41	0.010745
2932.06	0.011285
2941.7	0.016045
2951.35	0.020935
2960.99	0.016905
2970.64	0.014375
2980.28	0.021335
2989.93	0.025985
2999.57	0.016535
3009.22	0.009145
3018.86	0.006845
3028.51	0.005995
3038.15	0.004585
3047.8	0.003705
3057.44	0.002915
3067.09	0.003535
3076.73	0.004785
3086.38	0.005235
3096.02	0.003815
3105.67	0.003085
3115.31	0.001985
3124.95	0.001715
3134.6	0.001515
3144.24	0.001545
3153.89	0.001645
3163.53	0.0010065
3173.18	0.001315
3182.82	0.0007996
3192.47	0.001305
3202.11	0.0009659
3211.76	0.0006799
3221.4	0.0009599
3231.05	0.0009692
3240.69	0.0008067
3250.34	0.001235
3259.98	0.0009647
3269.63	0.0006342
3279.27	0.0007781
3288.92	0.0005049
3298.56	0.0005655
3308.21	0.0006375
3317.85	0.00021959
3327.49	0.0009258
3337.14	0.0005913
3346.78	0.001455
3356.43	0.0011882
3366.07	0.0003819
3375.72	0.0009685
3385.36	0.0008065
3395.01	0.001215
3404.65	0.001575
3414.3	0.001945
3423.94	0.002585
3433.59	0.002665
3443.23	0.002275
3452.88	0.0010524
3462.52	0.001285
3472.17	0.0009162
3481.81	0.0007981
3491.46	0.001097
3501.1	0.0005267
3510.75	0.0008763
3520.39	0.0007072
3530.04	0.0003359
3539.68	0.0003203
3549.32	0.0006636
3558.97	0.0004417
3568.61	0.0005763
3578.26	0.0007139
3587.9	0.0007584
3597.55	0.0005804
3607.19	0.0010427
3616.84	0.0004402
3626.48	0.00054
3636.13	0.0009228
3645.77	0.00025284
3655.42	0.0003849
3665.06	0.0003884
3674.71	0.0003808
3684.35	0.0005874
3694	0.0007657
3703.64	0.0010644
3713.29	0.00026877
3722.93	0.0004675
3732.58	0.0006775
3742.22	0.0009244
3751.86	0.0008538
3761.51	0.0012045
3771.15	0.0011889
3780.8	0.000211287
3790.44	0.000664
3800.09	0.0007738
3809.73	0.0004829
3819.38	0.001355
3829.02	0.000967
3838.67	0.0009784
3848.31	0.0010427
3857.96	0.0006725
3867.6	0.0009328
3877.25	0.0007804
3886.89	0.0006179
3896.54	0.0011117
3906.18	0.0009774
3915.83	0.0008867
3925.47	0.0007047
3935.12	0.0007798
3944.76	0.0007375
3954.41	0.0008563
3964.05	0.001645
3973.69	0.0011082
3983.34	0.0007682
3992.98	0.0006549
