Infrared Spectrum: 3-Chloro-2-fluorobenzyl bromide
Formula: C 7 H 5 Br Cl F
CAS: 85070-47-9
State: gas
Origin: EPA-IR VAPOR PHASE LIBRARY
1/CM	ABSORBANCE
549.8	0.013961
559.445	0.007451
569.09	0.007971
578.734	0.007981
588.379	0.007891
598.024	0.009291
607.669	0.013701
617.313	0.024851
626.958	0.079411
636.603	0.141691
646.248	0.049141
655.893	0.013821
665.537	0.006971
675.182	0.005871
684.827	0.005381
694.472	0.005921
704.116	0.010461
713.761	0.034131
723.406	0.091951
733.051	0.089521
742.695	0.034131
752.34	0.016351
761.985	0.026491
771.63	0.055541
781.275	0.064301
790.919	0.027241
800.564	0.013901
810.209	0.028841
819.854	0.038531
829.498	0.026311
839.143	0.015071
848.788	0.008891
858.433	0.010891
868.078	0.010911
877.722	0.011251
887.367	0.022381
897.012	0.049911
906.657	0.062241
916.301	0.035071
925.946	0.015681
935.591	0.008651
945.236	0.005451
954.88	0.003771
964.525	0.003851
974.17	0.003741
983.815	0.003451
993.46	0.003471
1003.1	0.003391
1012.75	0.003551
1022.39	0.003521
1032.04	0.004571
1041.68	0.008451
1051.33	0.016721
1060.97	0.024291
1070.62	0.022051
1080.26	0.015051
1089.91	0.010371
1099.55	0.007611
1109.2	0.010961
1118.84	0.023381
1128.49	0.018391
1138.13	0.013951
1147.78	0.029411
1157.42	0.028841
1167.07	0.017211
1176.71	0.027941
1186.36	0.035301
1196	0.027491
1205.64	0.041351
1215.29	0.122261
1224.93	0.142031
1234.58	0.133581
1244.22	0.104951
1253.87	0.064011
1263.51	0.057031
1273.16	0.062911
1282.8	0.038481
1292.45	0.019001
1302.09	0.010721
1311.74	0.009241
1321.38	0.007571
1331.03	0.004581
1340.67	0.003491
1350.32	0.003441
1359.96	0.004091
1369.61	0.003841
1379.25	0.003841
1388.9	0.004121
1398.54	0.005511
1408.18	0.008541
1417.83	0.013751
1427.47	0.027551
1437.12	0.058201
1446.76	0.118271
1456.41	0.231311
1466.05	0.276681
1475.7	0.175391
1485.34	0.070681
1494.99	0.029231
1504.63	0.016361
1514.28	0.009221
1523.92	0.005951
1533.57	0.005361
1543.21	0.005851
1552.86	0.006931
1562.5	0.009421
1572.15	0.015901
1581.79	0.018191
1591.44	0.012191
1601.08	0.015271
1610.73	0.013401
1620.37	0.006841
1630.01	0.004881
1639.66	0.003541
1649.3	0.003171
1658.95	0.003681
1668.59	0.005831
1678.24	0.008451
1687.88	0.004581
1697.53	0.002491
1707.17	0.002041
1716.82	0.002181
1726.46	0.002131
1736.11	0.002171
1745.75	0.002091
1755.4	0.002181
1765.04	0.002401
1774.69	0.002881
1784.33	0.004341
1793.98	0.004831
1803.62	0.003641
1813.27	0.002931
1822.91	0.002621
1832.55	0.002471
1842.2	0.003831
1851.84	0.006991
1861.49	0.007611
1871.13	0.004181
1880.78	0.002661
1890.42	0.002421
1900.07	0.002861
1909.71	0.004231
1919.36	0.006261
1929	0.005481
1938.65	0.002701
1948.29	0.001571
1957.94	0.0013479
1967.58	0.001511
1977.23	0.001791
1986.87	0.001631
1996.52	0.0014179
2006.16	0.001521
2015.81	0.001521
2025.45	0.0014889
2035.1	0.001571
2044.74	0.001641
2054.38	0.001631
2064.03	0.001681
2073.67	0.001881
2083.32	0.002061
2092.96	0.002531
2102.61	0.002241
2112.25	0.001631
2121.9	0.0014072
2131.54	0.001551
2141.19	0.0014187
2150.83	0.0014735
2160.48	0.0010546
2170.12	0.0011163
2179.77	0.0012638
2189.41	0.0012642
2199.06	0.001208
2208.7	0.0011813
2218.35	0.0014044
2227.99	0.0013045
2237.64	0.0014565
2247.28	0.001571
2256.92	0.001781
2266.57	0.002281
2276.21	0.002591
2285.86	0.003251
2295.5	0.003251
2305.15	0.002861
2314.79	0.002051
2324.44	0.001881
2334.08	0.001721
2343.73	0.001621
2353.37	0.001721
2363.02	0.0014842
2372.66	0.001661
2382.31	0.002011
2391.95	0.002011
2401.6	0.002461
2411.24	0.002341
2420.89	0.002401
2430.53	0.002511
2440.18	0.002281
2449.82	0.002421
2459.47	0.001981
2469.11	0.002121
2478.75	0.002031
2488.4	0.001861
2498.04	0.001671
2507.69	0.001711
2517.33	0.002231
2526.98	0.002181
2536.62	0.002141
2546.27	0.001991
2555.91	0.002111
2565.56	0.002151
2575.2	0.002321
2584.85	0.001591
2594.49	0.0014376
2604.14	0.0014493
2613.78	0.001531
2623.43	0.0013515
2633.07	0.001711
2642.72	0.001611
2652.36	0.002071
2662.01	0.002011
2671.65	0.002251
2681.29	0.001651
2690.94	0.001287
2700.58	0.001501
2710.23	0.0014378
2719.87	0.001531
2729.52	0.001511
2739.16	0.001541
2748.81	0.0011136
2758.45	0.0014754
2768.1	0.0011497
2777.74	0.0011936
2787.39	0.0009668
2797.03	0.0009029
2806.68	0.0010858
2816.32	0.0012434
2825.97	0.0013291
2835.61	0.001531
2845.26	0.0014602
2854.9	0.001891
2864.55	0.002351
2874.19	0.002611
2883.84	0.001881
2893.48	0.001501
2903.12	0.0014647
2912.77	0.001611
2922.41	0.001921
2932.06	0.001741
2941.7	0.001901
2951.35	0.002101
2960.99	0.003211
2970.64	0.005261
2980.28	0.011151
2989.93	0.016661
2999.57	0.010201
3009.22	0.005511
3018.86	0.005311
3028.51	0.007371
3038.15	0.009601
3047.8	0.008921
3057.44	0.008621
3067.09	0.011401
3076.73	0.017491
3086.38	0.019981
3096.02	0.013151
3105.67	0.004601
3115.31	0.001671
3124.95	0.001294
3134.6	0.0008911
3144.24	0.0012259
3153.89	0.0009113
3163.53	0.0005914
3173.18	0.0008071
3182.82	0.0007832
3192.47	0.0008734
3202.11	0.0010498
3211.76	0.0007227
3221.4	0.0008912
3231.05	0.0009272
3240.69	0.0006289
3250.34	0.0006157
3259.98	0.0010807
3269.63	0.0006972
3279.27	0.0010931
3288.92	0.0006118
3298.56	0.00053979
3308.21	0.00066
3317.85	0.0004833
3327.49	0.0008985
3337.14	0.0008409
3346.78	0.000395
3356.43	0.0009064
3366.07	0.0011071
3375.72	0.0012985
3385.36	0.0006639
3395.01	0.0004331
3404.65	0.0007185
3414.3	0.0008573
3423.94	0.000309
3433.59	0.00053063
3443.23	0.0008528
3452.88	0.0007381
3462.52	0.0008998
3472.17	0.000356
3481.81	0.00053384
3491.46	0.0010002
3501.1	0.0004723
3510.75	0.000978
3520.39	0.0007876
3530.04	0.0007872
3539.68	0.0006649
3549.32	0.0008131
3558.97	0.0008308
3568.61	0.0010637
3578.26	0.0013657
3587.9	0.0011136
3597.55	0.0008055
3607.19	0.0004414
3616.84	0.0010973
3626.48	0.0013078
3636.13	0.0012679
3645.77	0.0007852
3655.42	0.0008513
3665.06	0.000609
3674.71	0.0009812
3684.35	0.0013148
3694	0.00053263
3703.64	0.0006844
3713.29	0.0007194
3722.93	0.001851
3732.58	0.000497496
3742.22	0.0013997
3751.86	0.001133
3761.51	0.0012564
3771.15	0.0007679
3780.8	0.000797
3790.44	0.0010645
3800.09	0.0007536
3809.73	0.00089
3819.38	0.0007831
3829.02	0.0006014
3838.67	0.0011196
3848.31	0.0013985
3857.96	0.001631
3867.6	0.0014745
3877.25	0.001571
3886.89	0.001891
3896.54	0.0014237
3906.18	0.002361
3915.83	0.001521
3925.47	0.0011448
3935.12	0.0011295
3944.76	0.0011398
3954.41	0.0009363
3964.05	0.0011524
3973.69	0.0011092
3983.34	0.0011785
3992.98	0.001901
