Infrared Spectrum: 3-Chloro-2-fluorotoluene
Formula: C 7 H 6 Cl F
CAS: 85089-31-2
State: gas
Origin: EPA-IR VAPOR PHASE LIBRARY
1/CM	ABSORBANCE
549.8	0.00217
559.445	0.0013299
569.09	0.000264
578.734	0.00107489
588.379	0.0017292
598.024	0.0013182
607.669	0.00393
617.313	0.01512
626.958	0.01733
636.603	0.01016
646.248	0.00249
655.893	0.0014327
665.537	0.000955
675.182	0.00110517
684.827	0.000914
694.472	0.00347
704.116	0.0092
713.761	0.02427
723.406	0.01273
733.051	0.00681
742.695	0.00769
752.34	0.02273
761.985	0.04484
771.63	0.0347
781.275	0.02144
790.919	0.00771
800.564	0.00789
810.209	0.01105
819.854	0.01479
829.498	0.01397
839.143	0.00872
848.788	0.00529
858.433	0.01488
868.078	0.03976
877.722	0.0389
887.367	0.01024
897.012	0.00299
906.657	0.0018796
916.301	0.00228
925.946	0.00292
935.591	0.00278
945.236	0.0028
954.88	0.00315
964.525	0.00353
974.17	0.00468
983.815	0.00508
993.46	0.00524
1003.1	0.00619
1012.75	0.0043
1022.39	0.00312
1032.04	0.00316
1041.68	0.00386
1051.33	0.00657
1060.97	0.00954
1070.62	0.01129
1080.26	0.01197
1089.91	0.01062
1099.55	0.0069
1109.2	0.00397
1118.84	0.0026
1128.49	0.00298
1138.13	0.00587
1147.78	0.00997
1157.42	0.00972
1167.07	0.00961
1176.71	0.01258
1186.36	0.0097
1196	0.00614
1205.64	0.00838
1215.29	0.0178
1224.93	0.03235
1234.58	0.03001
1244.22	0.01967
1253.87	0.021
1263.51	0.03428
1273.16	0.03157
1282.8	0.01361
1292.45	0.00675
1302.09	0.00504
1311.74	0.00357
1321.38	0.00267
1331.03	0.0021
1340.67	0.00216
1350.32	0.0022
1359.96	0.00235
1369.61	0.00296
1379.25	0.00412
1388.9	0.00473
1398.54	0.00457
1408.18	0.00453
1417.83	0.00802
1427.47	0.01598
1437.12	0.03121
1446.76	0.0522
1456.41	0.07548
1466.05	0.09372
1475.7	0.08489
1485.34	0.0566
1494.99	0.02543
1504.63	0.01296
1514.28	0.00878
1523.92	0.00782
1533.57	0.00765
1543.21	0.00694
1552.86	0.00622
1562.5	0.00659
1572.15	0.00728
1581.79	0.00783
1591.44	0.00838
1601.08	0.01054
1610.73	0.01008
1620.37	0.00486
1630.01	0.00258
1639.66	0.00302
1649.3	0.00405
1658.95	0.00349
1668.59	0.00234
1678.24	0.0017019
1687.88	0.0016627
1697.53	0.0014523
1707.17	0.0016716
1716.82	0.0016263
1726.46	0.0015354
1736.11	0.0013532
1745.75	0.0013889
1755.4	0.0018065
1765.04	0.00276
1774.69	0.00273
1784.33	0.00226
1793.98	0.00154
1803.62	0.0014709
1813.27	0.001525
1822.91	0.001905
1832.55	0.00287
1842.2	0.00368
1851.84	0.00351
1861.49	0.00214
1871.13	0.0015959
1880.78	0.0015018
1890.42	0.0018207
1900.07	0.00235
1909.71	0.00288
1919.36	0.00306
1929	0.00228
1938.65	0.0016962
1948.29	0.0013349
1957.94	0.0013121
1967.58	0.0012248
1977.23	0.0012597
1986.87	0.0013135
1996.52	0.0015758
2006.16	0.001585
2015.81	0.0014284
2025.45	0.0013116
2035.1	0.0014391
2044.74	0.0014836
2054.38	0.001631
2064.03	0.0016012
2073.67	0.0014813
2083.32	0.0013233
2092.96	0.0013434
2102.61	0.0015283
2112.25	0.0013135
2121.9	0.0012795
2131.54	0.0012879
2141.19	0.0013512
2150.83	0.00112849
2160.48	0.00114739
2170.12	0.00109177
2179.77	0.0011736
2189.41	0.0011306
2199.06	0.0012827
2208.7	0.0010418
2218.35	0.0012431
2227.99	0.0012051
2237.64	0.0013877
2247.28	0.0013854
2256.92	0.0016319
2266.57	0.0019046
2276.21	0.0018792
2285.86	0.0017162
2295.5	0.0016991
2305.15	0.0016873
2314.79	0.001536
2324.44	0.0014694
2334.08	0.0014661
2343.73	0.0015047
2353.37	0.0015675
2363.02	0.0015889
2372.66	0.0013967
2382.31	0.001592
2391.95	0.001554
2401.6	0.0018054
2411.24	0.0015259
2420.89	0.0018577
2430.53	0.001652
2440.18	0.001737
2449.82	0.0018396
2459.47	0.0017927
2469.11	0.0017033
2478.75	0.0016383
2488.4	0.0018222
2498.04	0.0016883
2507.69	0.0017249
2517.33	0.0018034
2526.98	0.0020269
2536.62	0.00198
2546.27	0.0020523
2555.91	0.00232
2565.56	0.0018054
2575.2	0.0017653
2584.85	0.0019999
2594.49	0.0015404
2604.14	0.0013497
2613.78	0.0015187
2623.43	0.0013149
2633.07	0.0012928
2642.72	0.0015441
2652.36	0.0016032
2662.01	0.0014695
2671.65	0.0012002
2681.29	0.0012217
2690.94	0.0014738
2700.58	0.0013203
2710.23	0.0014405
2719.87	0.0014667
2729.52	0.0016387
2739.16	0.0016564
2748.81	0.00224
2758.45	0.00216
2768.1	0.00207
2777.74	0.0013423
2787.39	0.00093
2797.03	0.0014226
2806.68	0.0016602
2816.32	0.0016602
2825.97	0.0016497
2835.61	0.00211
2845.26	0.00242
2854.9	0.00374
2864.55	0.00608
2874.19	0.00703
2883.84	0.00655
2893.48	0.00563
2903.12	0.00616
2912.77	0.00729
2922.41	0.0096
2932.06	0.01567
2941.7	0.01805
2951.35	0.01423
2960.99	0.00938
2970.64	0.00864
2980.28	0.00849
2989.93	0.00854
2999.57	0.00736
3009.22	0.00613
3018.86	0.0063
3028.51	0.00913
3038.15	0.01093
3047.8	0.01056
3057.44	0.01157
3067.09	0.01354
3076.73	0.01402
3086.38	0.01215
3096.02	0.00777
3105.67	0.00392
3115.31	0.00254
3124.95	0.0017604
3134.6	0.0015837
3144.24	0.0014252
3153.89	0.0011716
3163.53	0.0012419
3173.18	0.0010441
3182.82	0.0014511
3192.47	0.0014551
3202.11	0.0016946
3211.76	0.00108939
3221.4	0.0015387
3231.05	0.0009715
3240.69	0.000816
3250.34	0.0014711
3259.98	0.000855
3269.63	0.0014469
3279.27	0.000908
3288.92	0.000598
3298.56	0.0013693
3308.21	0.00115582
3317.85	0.0012977
3327.49	0.00106194
3337.14	0.0012203
3346.78	0.0014333
3356.43	0.0013689
3366.07	0.000857
3375.72	0.0013303
3385.36	0.0014441
3395.01	0.0011746
3404.65	0.000907
3414.3	0.0010463
3423.94	0.00105796
3433.59	0.0009664
3443.23	0.0012281
3452.88	0.0013221
3462.52	0.000991
3472.17	0.000522
3481.81	0.000905
3491.46	0.001223
3501.1	0.0012998
3510.75	0.0012503
3520.39	0.0014775
3530.04	0.00112206
3539.68	0.000419
3549.32	0.0012339
3558.97	0.0014326
3568.61	0.0012714
3578.26	0.000912
3587.9	0.001214
3597.55	0.000715
3607.19	0.0012145
3616.84	0.0010406
3626.48	0.000788
3636.13	0.000929
3645.77	0.0012278
3655.42	0.00111912
3665.06	0.00115187
3674.71	0.0013414
3684.35	0.00112926
3694	0.0012039
3703.64	0.000894
3713.29	0.0011732
3722.93	0.0015793
3732.58	0.000917
3742.22	0.0011692
3751.86	0.0013714
3761.51	0.0014179
3771.15	0.0012448
3780.8	0.000699
3790.44	0.000449
3800.09	0.0010427
3809.73	0.000809
3819.38	0.000846
3829.02	0.0012553
3838.67	0.0012859
3848.31	0.0014551
3857.96	0.0011786
3867.6	0.000806
3877.25	0.001598
3886.89	0.0016062
3896.54	0.0016664
3906.18	0.0013879
3915.83	0.0015514
3925.47	0.0012017
3935.12	0.0013741
3944.76	0.0013366
3954.41	0.0016323
3964.05	0.00229
3973.69	0.0014773
3983.34	0.0012354
3992.98	0.0012544
