Infrared Spectrum: 2,4-Difluorobenzamide
Formula: C 7 H 5 F 2 N O
CAS: 85118-02-1
State: gas
Origin: EPA-IR VAPOR PHASE LIBRARY
1/CM	ABSORBANCE
549.8	0.005992
559.445	0.006492
569.09	0.002972
578.734	0.002552
588.379	0.002542
598.024	0.003302
607.669	0.002182
617.313	0.0007826
626.958	0.0016814
636.603	0.002252
646.248	0.0013231
655.893	0.001962
665.537	0.001952
675.182	0.002862
684.827	0.002352
694.472	0.002932
704.116	0.002462
713.761	0.002022
723.406	0.002942
733.051	0.003512
742.695	0.003472
752.34	0.003212
761.985	0.004682
771.63	0.003612
781.275	0.002432
790.919	0.002602
800.564	0.002762
810.209	0.002452
819.854	0.002142
829.498	0.003972
839.143	0.005892
848.788	0.008672
858.433	0.008342
868.078	0.005182
877.722	0.002442
887.367	0.002162
897.012	0.001902
906.657	0.002152
916.301	0.002112
925.946	0.002362
935.591	0.002262
945.236	0.002382
954.88	0.003822
964.525	0.010422
974.17	0.010772
983.815	0.003552
993.46	0.0015941
1003.1	0.001527
1012.75	0.002222
1022.39	0.0010937
1032.04	0.000555
1041.68	0.0015251
1051.33	0.001872
1060.97	0.002532
1070.62	0.0013701
1080.26	0.006252
1089.91	0.006862
1099.55	0.003132
1109.2	0.001912
1118.84	0.005172
1128.49	0.007142
1138.13	0.009292
1147.78	0.005462
1157.42	0.003302
1167.07	0.002862
1176.71	0.0017871
1186.36	0.001525
1196	0.002542
1205.64	0.003792
1215.29	0.002622
1224.93	0.004152
1234.58	0.005622
1244.22	0.004812
1253.87	0.006722
1263.51	0.012142
1273.16	0.012082
1282.8	0.006592
1292.45	0.006272
1302.09	0.006012
1311.74	0.005502
1321.38	0.004882
1331.03	0.007922
1340.67	0.018292
1350.32	0.022952
1359.96	0.012222
1369.61	0.004352
1379.25	0.003072
1388.9	0.003092
1398.54	0.003332
1408.18	0.004792
1417.83	0.009192
1427.47	0.013362
1437.12	0.010502
1446.76	0.004432
1456.41	0.002872
1466.05	0.003262
1475.7	0.003652
1485.34	0.005302
1494.99	0.009522
1504.63	0.008882
1514.28	0.003542
1523.92	0.002012
1533.57	0.001862
1543.21	0.002282
1552.86	0.002802
1562.5	0.004772
1572.15	0.009072
1581.79	0.017412
1591.44	0.023822
1601.08	0.022572
1610.73	0.020352
1620.37	0.015612
1630.01	0.009382
1639.66	0.005972
1649.3	0.004632
1658.95	0.004412
1668.59	0.004782
1678.24	0.005662
1687.88	0.006352
1697.53	0.010312
1707.17	0.025802
1716.82	0.036762
1726.46	0.030702
1736.11	0.011092
1745.75	0.005952
1755.4	0.004832
1765.04	0.004222
1774.69	0.002632
1784.33	0.002102
1793.98	0.0017183
1803.62	0.001952
1813.27	0.0015511
1822.91	0.0016791
1832.55	0.0015616
1842.2	0.0013273
1851.84	0.001392
1861.49	0.0014376
1871.13	0.0014425
1880.78	0.0014041
1890.42	0.001544
1900.07	0.0012724
1909.71	0.0012186
1919.36	0.0014949
1929	0.0012794
1938.65	0.0013814
1948.29	0.0012784
1957.94	0.0012996
1967.58	0.0012973
1977.23	0.0010826
1986.87	0.0009777
1996.52	0.0011682
2006.16	0.0010609
2015.81	0.0011937
2025.45	0.0013075
2035.1	0.001166
2044.74	0.0012581
2054.38	0.001245
2064.03	0.0011226
2073.67	0.001227
2083.32	0.0012515
2092.96	0.0011864
2102.61	0.0010787
2112.25	0.0011973
2121.9	0.0011842
2131.54	0.0012495
2141.19	0.0012399
2150.83	0.0012167
2160.48	0.0011733
2170.12	0.0009858
2179.77	0.0010385
2189.41	0.0012061
2199.06	0.0011932
2208.7	0.00084359
2218.35	0.0010694
2227.99	0.001228
2237.64	0.0010958
2247.28	0.00087702
2256.92	0.0009878
2266.57	0.0010696
2276.21	0.0010555
2285.86	0.0011113
2295.5	0.0011351
2305.15	0.001134
2314.79	0.0011826
2324.44	0.0010649
2334.08	0.0009034
2343.73	0.0012704
2353.37	0.0012835
2363.02	0.0012082
2372.66	0.00090239
2382.31	0.0009783
2391.95	0.0011816
2401.6	0.0013286
2411.24	0.0011218
2420.89	0.0011539
2430.53	0.0014661
2440.18	0.0011189
2449.82	0.0007936
2459.47	0.0011281
2469.11	0.0012065
2478.75	0.0013292
2488.4	0.001208
2498.04	0.0009391
2507.69	0.0010435
2517.33	0.0012464
2526.98	0.0011583
2536.62	0.0010604
2546.27	0.0010487
2555.91	0.0010742
2565.56	0.001378
2575.2	0.0011505
2584.85	0.0009909
2594.49	0.0010627
2604.14	0.0009609
2613.78	0.0007985
2623.43	0.0013424
2633.07	0.0009237
2642.72	0.00089856
2652.36	0.0012394
2662.01	0.0009451
2671.65	0.0009496
2681.29	0.000942
2690.94	0.0012149
2700.58	0.0011875
2710.23	0.0013253
2719.87	0.0010568
2729.52	0.001315
2739.16	0.0007153
2748.81	0.0011909
2758.45	0.0010611
2768.1	0.0013252
2777.74	0.000592
2787.39	0.0012198
2797.03	0.0011087
2806.68	0.0010287
2816.32	0.0012212
2825.97	0.000726
2835.61	0.0009455
2845.26	0.0014678
2854.9	0.0011159
2864.55	0.0013012
2874.19	0.0010268
2883.84	0.0012234
2893.48	0.0010437
2903.12	0.0012059
2912.77	0.0007728
2922.41	0.00088533
2932.06	0.0011118
2941.7	0.0014122
2951.35	0.0013892
2960.99	0.0012221
2970.64	0.0013468
2980.28	0.00125
2989.93	0.0011556
2999.57	0.0009901
3009.22	0.0011701
3018.86	0.0014486
3028.51	0.0012765
3038.15	0.0009151
3047.8	0.0013518
3057.44	0.0014588
3067.09	0.001196
3076.73	0.0014274
3086.38	0.0018091
3096.02	0.0017541
3105.67	0.00152
3115.31	0.0009123
3124.95	0.0011157
3134.6	0.0011974
3144.24	0.0013391
3153.89	0.0011494
3163.53	0.0012049
3173.18	0.00111
3182.82	0.00084177
3192.47	0.00092
3202.11	0.001343
3211.76	0.0010356
3221.4	0.0009258
3231.05	0.0013394
3240.69	0.0016844
3250.34	0.00088739
3259.98	0.00089959
3269.63	0.00088902
3279.27	0.000411
3288.92	0.0015878
3298.56	0.0011251
3308.21	0.0016448
3317.85	0.0017648
3327.49	0.0009366
3337.14	0.0014112
3346.78	0.0012775
3356.43	0.0010057
3366.07	0.001322
3375.72	0.0015743
3385.36	0.001134
3395.01	0.002142
3404.65	0.002112
3414.3	0.003012
3423.94	0.004102
3433.59	0.004542
3443.23	0.005702
3452.88	0.004152
3462.52	0.002062
3472.17	0.000657
3481.81	0.001842
3491.46	0.001785
3501.1	0.0016427
3510.75	0.0017577
3520.39	0.002232
3530.04	0.003182
3539.68	0.003522
3549.32	0.003792
3558.97	0.005862
3568.61	0.006442
3578.26	0.004362
3587.9	0.002162
3597.55	0.0013104
3607.19	0.0012056
3616.84	0.0010383
3626.48	0.0010303
3636.13	0.0012648
3645.77	0.0014103
3655.42	0.0016169
3665.06	0.001962
3674.71	0.0010879
3684.35	0.001328
3694	0.0012933
3703.64	0.0015332
3713.29	0.0016209
3722.93	0.0012178
3732.58	0.0013118
3742.22	0.0015064
3751.86	0.000425
3761.51	0.0011325
3771.15	0.0009749
3780.8	0.00091031
3790.44	0.0012051
3800.09	0.0008771
3809.73	0.0013137
3819.38	0.001706
3829.02	0.0009148
3838.67	0.001422
3848.31	0.0012969
3857.96	0.0015308
3867.6	0.0007998
3877.25	0.0015961
3886.89	0.0012031
3896.54	0.0010885
3906.18	0.0010361
3915.83	0.0010047
3925.47	0.0010403
3935.12	0.000337
3944.76	0.0009297
3954.41	0.0013185
3964.05	0.0012185
3973.69	0.0007718
3983.34	0.0007354
3992.98	0.0009971
