Infrared Spectrum: 3,4-Difluorobenzyl alcohol
Formula: C 7 H 6 F 2 O
CAS: 85118-05-4
State: gas
Origin: EPA-IR VAPOR PHASE LIBRARY
1/CM	ABSORBANCE
549.8	0.00529
559.445	0.00638
569.09	0.00877
578.734	0.00986
588.379	0.00872
598.024	0.00646
607.669	0.00642
617.313	0.00659
626.958	0.00758
636.603	0.0055
646.248	0.00404
655.893	0.00318
665.537	0.00269
675.182	0.00299
684.827	0.00306
694.472	0.00277
704.116	0.00294
713.761	0.00461
723.406	0.00797
733.051	0.01374
742.695	0.01402
752.34	0.01161
761.985	0.0166
771.63	0.03622
781.275	0.03851
790.919	0.02147
800.564	0.02024
810.209	0.0322
819.854	0.03099
829.498	0.0177
839.143	0.00877
848.788	0.00838
858.433	0.01444
868.078	0.02218
877.722	0.01743
887.367	0.01089
897.012	0.00847
906.657	0.0083
916.301	0.01084
925.946	0.01651
935.591	0.02178
945.236	0.02111
954.88	0.01778
964.525	0.01593
974.17	0.01629
983.815	0.01699
993.46	0.01807
1003.1	0.02239
1012.75	0.02911
1022.39	0.03696
1032.04	0.04399
1041.68	0.04222
1051.33	0.02956
1060.97	0.02138
1070.62	0.0157
1080.26	0.01132
1089.91	0.00997
1099.55	0.01458
1109.2	0.03189
1118.84	0.03491
1128.49	0.02356
1138.13	0.02184
1147.78	0.01763
1157.42	0.0132
1167.07	0.01027
1176.71	0.01034
1186.36	0.01311
1196	0.0175
1205.64	0.02749
1215.29	0.03904
1224.93	0.03865
1234.58	0.02214
1244.22	0.01607
1253.87	0.01887
1263.51	0.0308
1273.16	0.06228
1282.8	0.12519
1292.45	0.13882
1302.09	0.07133
1311.74	0.02511
1321.38	0.01556
1331.03	0.0128
1340.67	0.01193
1350.32	0.01324
1359.96	0.0176
1369.61	0.02307
1379.25	0.02494
1388.9	0.02187
1398.54	0.01912
1408.18	0.02045
1417.83	0.02824
1427.47	0.04388
1437.12	0.04674
1446.76	0.03094
1456.41	0.01768
1466.05	0.01655
1475.7	0.01608
1485.34	0.01579
1494.99	0.02719
1504.63	0.06362
1514.28	0.13289
1523.92	0.15765
1533.57	0.09036
1543.21	0.02343
1552.86	0.01367
1562.5	0.01318
1572.15	0.01378
1581.79	0.01339
1591.44	0.01759
1601.08	0.02946
1610.73	0.0358
1620.37	0.02608
1630.01	0.01398
1639.66	0.00684
1649.3	0.00381
1658.95	0.00303
1668.59	0.00271
1678.24	0.0022108
1687.88	0.0021134
1697.53	0.0021748
1707.17	0.00259
1716.82	0.0029
1726.46	0.00357
1736.11	0.0037
1745.75	0.00344
1755.4	0.00318
1765.04	0.00232
1774.69	0.0019127
1784.33	0.0021711
1793.98	0.00253
1803.62	0.00273
1813.27	0.00238
1822.91	0.0020717
1832.55	0.0021357
1842.2	0.0022589
1851.84	0.00274
1861.49	0.00324
1871.13	0.00352
1880.78	0.00332
1890.42	0.00267
1900.07	0.0022372
1909.71	0.0022043
1919.36	0.0016414
1929	0.0018455
1938.65	0.0019217
1948.29	0.0017854
1957.94	0.0020326
1967.58	0.0020332
1977.23	0.0019921
1986.87	0.00238
1996.52	0.0022237
2006.16	0.0020668
2015.81	0.0022558
2025.45	0.00237
2035.1	0.00257
2044.74	0.00277
2054.38	0.00303
2064.03	0.00292
2073.67	0.00302
2083.32	0.00236
2092.96	0.00227
2102.61	0.0019999
2112.25	0.0020505
2121.9	0.0017063
2131.54	0.0015064
2141.19	0.0019677
2150.83	0.0020017
2160.48	0.0016808
2170.12	0.001786
2179.77	0.0020321
2189.41	0.002018
2199.06	0.001995
2208.7	0.0016477
2218.35	0.0019712
2227.99	0.0018958
2237.64	0.0019066
2247.28	0.002092
2256.92	0.0019495
2266.57	0.0022621
2276.21	0.0022598
2285.86	0.0026
2295.5	0.00286
2305.15	0.00266
2314.79	0.00259
2324.44	0.00244
2334.08	0.00275
2343.73	0.00257
2353.37	0.00285
2363.02	0.0021555
2372.66	0.00239
2382.31	0.00234
2391.95	0.00269
2401.6	0.00233
2411.24	0.00262
2420.89	0.00246
2430.53	0.00237
2440.18	0.002262
2449.82	0.0022675
2459.47	0.00192
2469.11	0.0018822
2478.75	0.00227
2488.4	0.00243
2498.04	0.0021057
2507.69	0.00258
2517.33	0.00246
2526.98	0.00257
2536.62	0.00274
2546.27	0.00289
2555.91	0.00284
2565.56	0.00246
2575.2	0.00275
2584.85	0.0027
2594.49	0.0027
2604.14	0.00229
2613.78	0.00233
2623.43	0.0020625
2633.07	0.0021573
2642.72	0.0021832
2652.36	0.0021998
2662.01	0.0021732
2671.65	0.0024
2681.29	0.00238
2690.94	0.0019424
2700.58	0.0021035
2710.23	0.00237
2719.87	0.00281
2729.52	0.0026
2739.16	0.00295
2748.81	0.00244
2758.45	0.00275
2768.1	0.00309
2777.74	0.0033
2787.39	0.00333
2797.03	0.00358
2806.68	0.0038
2816.32	0.004
2825.97	0.00485
2835.61	0.00544
2845.26	0.00767
2854.9	0.00936
2864.55	0.01212
2874.19	0.01586
2883.84	0.01923
2893.48	0.01951
2903.12	0.01675
2912.77	0.01611
2922.41	0.01616
2932.06	0.01583
2941.7	0.01554
2951.35	0.01361
2960.99	0.01111
2970.64	0.0085
2980.28	0.00613
2989.93	0.00455
2999.57	0.00404
3009.22	0.00307
3018.86	0.00291
3028.51	0.00413
3038.15	0.0052
3047.8	0.00564
3057.44	0.00623
3067.09	0.00646
3076.73	0.00521
3086.38	0.00392
3096.02	0.002169
3105.67	0.0017403
3115.31	0.0014762
3124.95	0.0019864
3134.6	0.0021767
3144.24	0.001335
3153.89	0.001065
3163.53	0.0017919
3173.18	0.000971
3182.82	0.00133285
3192.47	0.0015921
3202.11	0.0012388
3211.76	0.000663
3221.4	0.001126
3231.05	0.001265
3240.69	0.001502
3250.34	0.0013993
3259.98	0.00071
3269.63	0.000929
3279.27	0.0017777
3288.92	0.0012327
3298.56	0.000837
3308.21	0.000838
3317.85	0.000869
3327.49	0.00132709
3337.14	0.0011944
3346.78	0.001065
3356.43	0.001105
3366.07	0.00132679
3375.72	0.0015226
3385.36	0.0011907
3395.01	0.00136607
3404.65	0.0016638
3414.3	0.001016
3423.94	0.001066
3433.59	0.0015898
3443.23	0.0011804
3452.88	0.000759
3462.52	0.0015859
3472.17	0.001054
3481.81	0.0017968
3491.46	0.0014374
3501.1	0.001123
3510.75	0.002009
3520.39	0.00094
3530.04	0.001688
3539.68	0.000902
3549.32	0.000745
3558.97	0.0017946
3568.61	0.000805
3578.26	0.0016343
3587.9	0.0012423
3597.55	0.00255
3607.19	0.00271
3616.84	0.00299
3626.48	0.00413
3636.13	0.00692
3645.77	0.01023
3655.42	0.01354
3665.06	0.01364
3674.71	0.00997
3684.35	0.00647
3694	0.00429
3703.64	0.003
3713.29	0.00257
3722.93	0.001129
3732.58	0.0011732
3742.22	0.00136381
3751.86	0.0017509
3761.51	0.0016082
3771.15	0.0012203
3780.8	0.001249
3790.44	0.0014281
3800.09	0.001065
3809.73	0.0014021
3819.38	0.002033
3829.02	0.0015699
3838.67	0.001653
3848.31	0.0015935
3857.96	0.00130237
3867.6	0.0013791
3877.25	0.0016118
3886.89	0.0014804
3896.54	0.0018275
3906.18	0.0015859
3915.83	0.00128263
3925.47	0.000793
3935.12	0.000587
3944.76	0.00126795
3954.41	0.001239
3964.05	0.001078
3973.69	0.0012045
3983.34	0.000971
3992.98	0.0007
