Infrared Spectrum: 2,5-Difluorobenzylamine
Formula: C 7 H 7 F 2 N
CAS: 85118-06-5
State: gas
Instrument: HP-GC/MS/IRD
Origin: NIST Mass Spectrometry Data Center
1/CM	ABSORBANCE
550	0.0055687
562	0.0048464
574	0.0035183
586	0.0027028
598	0.0029125
610	0.0037513
622	0.0042639
634	0.0038212
646	0.0037047
658	0.0046134
670	0.0065007
682	0.009786
694	0.0162867
706	0.0311055
718	0.0426157
730	0.0462971
742	0.0583199
754	0.0630032
766	0.0565258
778	0.0501882
790	0.0475087
802	0.0658225
814	0.0804316
826	0.0484407
838	0.0244883
850	0.0204108
862	0.0297075
874	0.038678
886	0.0225777
898	0.0092268
910	0.0051027
922	0.0058483
934	0.0092734
946	0.0100423
958	0.005592
970	0.002097
982	0.0009087
994	0.000466
1006	0.0009087
1018	0.0021436
1030	0.0052425
1042	0.0070366
1054	0.0052192
1066	0.003262
1078	0.0020038
1090	0.0017009
1102	0.0012582
1114	0.0029824
1126	0.0120927
1138	0.0211331
1150	0.0166828
1162	0.0148421
1174	0.0394702
1186	0.0797326
1198	0.0913127
1210	0.0801986
1222	0.0594616
1234	0.046833
1246	0.0425691
1258	0.0307793
1270	0.0325501
1282	0.0230204
1294	0.0068269
1306	0.003262
1318	0.0028892
1330	0.0040542
1342	0.006524
1354	0.008854
1366	0.0110908
1378	0.0147256
1390	0.0153081
1402	0.0126985
1414	0.0211797
1426	0.0364878
1438	0.0297075
1450	0.0247912
1462	0.0346937
1474	0.0652633
1486	0.169787
1498	0.231439
1510	0.114263
1522	0.0254436
1534	0.00932
1546	0.0057551
1558	0.0051726
1570	0.0066405
1582	0.0111374
1594	0.0159838
1606	0.0173585
1618	0.0178711
1630	0.0166828
1642	0.0106248
1654	0.0057551
1666	0.0033319
1678	0.0021902
1690	0.0013747
1702	0.0008621
1714	0.0010951
1726	0.0023999
1738	0.0031688
1750	0.0023067
1762	0.0012582
1774	0.000699
1786	0.0005825
1798	0.0007922
1810	0.0009087
1822	0.0010718
1834	0.0022601
1846	0.0046134
1858	0.0037979
1870	0.0011184
1882	0.0003029
1894	0.0001165
1906	0
1918	4.66e-05
1930	0.0001165
1942	0.0002563
1954	0.000466
1966	0.000699
1978	0.0009553
1990	0.0010252
2002	0.0010252
2014	0.000932
2026	0.0008621
2038	0.0006757
2050	0.0005126
2062	0.0004427
2074	0.0004427
2086	0.0004194
2098	0.0004194
2110	0.0004893
2122	0.0005825
2134	0.0006291
2146	0.0006291
2158	0.0005592
2170	0.0005359
2182	0.0005126
2194	0.0005592
2206	0.0006058
2218	0.0006291
2230	0.0006757
2242	0.0006524
2254	0.000699
2266	0.0008155
2278	0.0008854
2290	0.0007922
2302	0.0007223
2314	0.000699
2326	0.0006757
2338	0.0006524
2350	0.0006524
2362	0.0006757
2374	0.0007456
2386	0.0007689
2398	0.0009786
2410	0.001165
2422	0.001165
2434	0.001165
2446	0.001165
2458	0.0011883
2470	0.0011184
2482	0.0009553
2494	0.0008155
2506	0.0007456
2518	0.0007223
2530	0.0007223
2542	0.0006757
2554	0.000699
2566	0.0005825
2578	0.0005359
2590	0.0005126
2602	0.0004893
2614	0.000466
2626	0.0005825
2638	0.0006058
2650	0.0006757
2662	0.0007223
2674	0.0008155
2686	0.0008854
2698	0.0009553
2710	0.0010951
2722	0.0012815
2734	0.0014446
2746	0.001631
2758	0.0017475
2770	0.0016543
2782	0.0016543
2794	0.0017708
2806	0.0022135
2818	0.0029358
2830	0.0040775
2842	0.005825
2854	0.0084579
2866	0.0115102
2878	0.0139101
2890	0.0137936
2902	0.0126286
2914	0.0129315
2926	0.0144693
2938	0.0157974
2950	0.0150052
2962	0.0122325
2974	0.0081317
2986	0.0046833
2998	0.0028892
3010	0.0020504
3022	0.0017009
3034	0.0020038
3046	0.0031222
3058	0.0037746
3070	0.0032387
3082	0.0031921
3094	0.0028892
3106	0.0016776
3118	0.0011417
3130	0.000932
3142	0.000699
3154	0.0005592
3166	0.0005592
3178	0.0005126
3190	0.0005825
3202	0.0005592
3214	0.0006524
3226	0.0006058
3238	0.0006058
3250	0.0005825
3262	0.0006058
3274	0.000466
3286	0.0004893
3298	0.0005126
3310	0.000466
3322	0.0005825
3334	0.0008155
3346	0.0013514
3358	0.0016077
3370	0.0012349
3382	0.0009553
3394	0.0008388
3406	0.0013048
3418	0.0017941
3430	0.0017242
3442	0.0012815
3454	0.0009786
3466	0.0007922
3478	0.0008388
3490	0.0006757
3502	0.0005359
3514	0.0005825
3526	0.0006757
3538	0.0005825
3550	0.0005359
3562	0.0005126
3574	0.0005359
3586	0.0005592
3598	0.0005592
3610	0.0005592
3622	0.0005825
3634	0.0005359
3646	0.000466
3658	0.0005126
3670	0.0005126
3682	0.0005592
3694	0.0005592
3706	0.0005359
3718	0.0005359
3730	0.000466
3742	0.000466
3754	0.0004893
3766	0.0005825
3778	0.0006291
3790	0.0006291
3802	0.000699
3814	0.0006524
3826	0.000699
3838	0.0006524
