Infrared Spectrum: 2,5-Difluorobenzamide
Formula: C 7 H 5 F 2 N O
CAS: 85118-03-2
State: gas
Origin: EPA-IR VAPOR PHASE LIBRARY
1/CM	ABSORBANCE
549.8	0.007926
559.445	0.010996
569.09	0.017576
578.734	0.019676
588.379	0.014526
598.024	0.010536
607.669	0.017096
617.313	0.024276
626.958	0.015366
636.603	0.004526
646.248	0.003336
655.893	0.002636
665.537	0.003606
675.182	0.004926
684.827	0.007296
694.472	0.016046
704.116	0.036646
713.761	0.035436
723.406	0.017726
733.051	0.017756
742.695	0.017936
752.34	0.022466
761.985	0.047806
771.63	0.060346
781.275	0.037066
790.919	0.017376
800.564	0.020996
810.209	0.040096
819.854	0.076446
829.498	0.043766
839.143	0.024906
848.788	0.018036
858.433	0.015486
868.078	0.014546
877.722	0.016976
887.367	0.022586
897.012	0.029226
906.657	0.032386
916.301	0.028726
925.946	0.022186
935.591	0.013306
945.236	0.008816
954.88	0.007426
964.525	0.007046
974.17	0.006316
983.815	0.005976
993.46	0.005136
1003.1	0.005736
1012.75	0.005056
1022.39	0.005236
1032.04	0.004576
1041.68	0.004066
1051.33	0.004066
1060.97	0.004846
1070.62	0.003976
1080.26	0.004086
1089.91	0.005286
1099.55	0.008796
1109.2	0.017376
1118.84	0.020336
1128.49	0.015766
1138.13	0.007526
1147.78	0.006356
1157.42	0.009566
1167.07	0.020106
1176.71	0.054976
1186.36	0.076836
1196	0.054906
1205.64	0.025586
1215.29	0.013116
1224.93	0.011846
1234.58	0.023216
1244.22	0.032846
1253.87	0.038246
1263.51	0.039686
1273.16	0.027866
1282.8	0.021076
1292.45	0.020486
1302.09	0.024496
1311.74	0.033976
1321.38	0.063686
1331.03	0.107956
1340.67	0.113896
1350.32	0.073456
1359.96	0.037536
1369.61	0.018536
1379.25	0.012336
1388.9	0.009856
1398.54	0.010336
1408.18	0.024606
1417.83	0.084826
1427.47	0.153226
1437.12	0.110626
1446.76	0.030116
1456.41	0.030386
1466.05	0.052336
1475.7	0.116696
1485.34	0.203236
1494.99	0.172906
1504.63	0.066906
1514.28	0.023396
1523.92	0.010986
1533.57	0.008236
1543.21	0.008526
1552.86	0.009876
1562.5	0.013966
1572.15	0.028786
1581.79	0.080706
1591.44	0.126156
1601.08	0.091086
1610.73	0.038526
1620.37	0.022726
1630.01	0.019136
1639.66	0.016156
1649.3	0.012696
1658.95	0.012006
1668.59	0.018476
1678.24	0.028966
1687.88	0.034306
1697.53	0.051526
1707.17	0.137906
1716.82	0.267126
1726.46	0.249876
1736.11	0.092756
1745.75	0.042486
1755.4	0.037126
1765.04	0.030546
1774.69	0.014646
1784.33	0.006856
1793.98	0.005536
1803.62	0.005286
1813.27	0.004236
1822.91	0.003286
1832.55	0.003326
1842.2	0.003256
1851.84	0.003416
1861.49	0.004286
1871.13	0.004356
1880.78	0.002876
1890.42	0.001906
1900.07	0.001586
1909.71	0.001496
1919.36	0.001516
1929	0.001636
1938.65	0.001546
1948.29	0.001826
1957.94	0.001936
1967.58	0.001776
1977.23	0.001556
1986.87	0.001526
1996.52	0.001806
2006.16	0.002046
2015.81	0.002296
2025.45	0.002106
2035.1	0.001916
2044.74	0.001626
2054.38	0.001266
2064.03	0.0010293
2073.67	0.0008749
2083.32	0.00103
2092.96	0.0009755
2102.61	0.0011347
2112.25	0.0010387
2121.9	0.0009813
2131.54	0.0008655
2141.19	0.0006626
2150.83	0.0007083
2160.48	0.0009384
2170.12	0.0011308
2179.77	0.0012004
2189.41	0.001356
2199.06	0.0010364
2208.7	0.0010506
2218.35	0.0006998
2227.99	0.0006278
2237.64	0.000652
2247.28	0.0007416
2256.92	0.0007859
2266.57	0.0007201
2276.21	0.0007637
2285.86	0.0006138
2295.5	0.0008305
2305.15	0.000891
2314.79	0.0008608
2324.44	0.0009298
2334.08	0.0008132
2343.73	0.0009232
2353.37	0.0008365
2363.02	0.0010771
2372.66	0.0011331
2382.31	0.0009018
2391.95	0.0010791
2401.6	0.0012494
2411.24	0.001456
2420.89	0.001666
2430.53	0.001926
2440.18	0.001836
2449.82	0.001526
2459.47	0.0011586
2469.11	0.0008994
2478.75	0.0007793
2488.4	0.0008028
2498.04	0.0010064
2507.69	0.0010669
2517.33	0.0010268
2526.98	0.0008807
2536.62	0.0007543
2546.27	0.0008319
2555.91	0.0008248
2565.56	0.0007971
2575.2	0.0005722
2584.85	0.0007429
2594.49	0.0007455
2604.14	0.0005231
2613.78	0.0005693
2623.43	0.0004839
2633.07	0.0004579
2642.72	0.0007031
2652.36	0.0005863
2662.01	0.0006521
2671.65	0.0007631
2681.29	0.0008346
2690.94	0.0006732
2700.58	0.0007256
2710.23	0.0008157
2719.87	0.000659
2729.52	0.0008205
2739.16	0.0007813
2748.81	0.0006471
2758.45	0.0006532
2768.1	0.0006527
2777.74	0.0007586
2787.39	0.0010069
2797.03	0.001135
2806.68	0.001526
2816.32	0.001546
2825.97	0.0012512
2835.61	0.0008386
2845.26	0.0008336
2854.9	0.0008717
2864.55	0.0007612
2874.19	0.0008685
2883.84	0.0009806
2893.48	0.0006878
2903.12	0.0009281
2912.77	0.0008708
2922.41	0.0008961
2932.06	0.0007657
2941.7	0.0008545
2951.35	0.0006738
2960.99	0.00033097
2970.64	0.000263509
2980.28	0.000243
2989.93	0.0004243
2999.57	0.000675
3009.22	0.0007874
3018.86	0.0006756
3028.51	0.0009372
3038.15	0.001686
3047.8	0.001996
3057.44	0.002536
3067.09	0.003246
3076.73	0.006116
3086.38	0.007526
3096.02	0.005106
3105.67	0.002006
3115.31	0.002016
3124.95	0.001706
3134.6	0.001276
3144.24	0.0010666
3153.89	0.0012403
3163.53	0.001336
3173.18	0.0010241
3182.82	0.0009691
3192.47	0.000643
3202.11	0.0007312
3211.76	0.0007438
3221.4	0.000736
3231.05	0.0005673
3240.69	0.0005715
3250.34	0.0003913
3259.98	0.0004964
3269.63	0.000447
3279.27	0.0006501
3288.92	0.000784
3298.56	0.0009716
3308.21	0.0012314
3317.85	0.0009014
3327.49	0.0008375
3337.14	0.000774
3346.78	0.0008514
3356.43	0.0009085
3366.07	0.001376
3375.72	0.001896
3385.36	0.002516
3395.01	0.004166
3404.65	0.007276
3414.3	0.012226
3423.94	0.018136
3433.59	0.026066
3443.23	0.032516
3452.88	0.021606
3462.52	0.005846
3472.17	0.003246
3481.81	0.002846
3491.46	0.003006
3501.1	0.004486
3510.75	0.006116
3520.39	0.009306
3530.04	0.014316
3539.68	0.019386
3549.32	0.024426
3558.97	0.036226
3568.61	0.039466
3578.26	0.022546
3587.9	0.004836
3597.55	0.001836
3607.19	0.001416
3616.84	0.001366
3626.48	0.001276
3636.13	0.0009182
3645.77	0.001276
3655.42	0.0011764
3665.06	0.0008109
3674.71	0.0008893
3684.35	0.0005374
3694	0.0005147
3703.64	0.0006671
3713.29	0.0008195
3722.93	0.0008266
3732.58	0.0006521
3742.22	0.000664
3751.86	0.0008872
3761.51	0.0009142
3771.15	0.0008329
3780.8	0.0010877
3790.44	0.0010945
3800.09	0.0010587
3809.73	0.000694
3819.38	0.0009237
3829.02	0.0007218
3838.67	0.0005568
3848.31	0.0005805
3857.96	0.0006354
3867.6	0.0010071
3877.25	0.000536
3886.89	0.0006102
3896.54	0.0004538
3906.18	0.0005367
3915.83	0.0008727
3925.47	4.5e-05
3935.12	0.00026725
3944.76	0.0005257
3954.41	0.0007257
3964.05	0.0005045
3973.69	0.0006531
3983.34	0.0006135
3992.98	0.0004601
