Infrared Spectrum: 2,5-Difluorobenzylbromide
Formula: C 7 H 5 Br F 2
CAS: 85117-99-3
State: gas
Origin: EPA-IR VAPOR PHASE LIBRARY
1/CM	ABSORBANCE
549.8	0.019831
559.445	0.009911
569.09	0.011861
578.734	0.022401
588.379	0.025321
598.024	0.014381
607.669	0.009581
617.313	0.007671
626.958	0.009751
636.603	0.018821
646.248	0.017471
655.893	0.010251
665.537	0.008291
675.182	0.008821
684.827	0.007631
694.472	0.007661
704.116	0.012551
713.761	0.039631
723.406	0.097791
733.051	0.085121
742.695	0.031741
752.34	0.016851
761.985	0.024031
771.63	0.031461
781.275	0.023341
790.919	0.017551
800.564	0.036441
810.209	0.082571
819.854	0.068871
829.498	0.025371
839.143	0.014321
848.788	0.016451
858.433	0.026401
868.078	0.052961
877.722	0.057631
887.367	0.025601
897.012	0.011551
906.657	0.007501
916.301	0.005061
925.946	0.004501
935.591	0.004171
945.236	0.007381
954.88	0.023711
964.525	0.022041
974.17	0.005481
983.815	0.002771
993.46	0.002061
1003.1	0.002021
1012.75	0.0014876
1022.39	0.0009068
1032.04	0.001881
1041.68	0.002191
1051.33	0.0013236
1060.97	0.002361
1070.62	0.004621
1080.26	0.010551
1089.91	0.012651
1099.55	0.006921
1109.2	0.006271
1118.84	0.008621
1128.49	0.015951
1138.13	0.035651
1147.78	0.039851
1157.42	0.024171
1167.07	0.027541
1176.71	0.048771
1186.36	0.073491
1196	0.117701
1205.64	0.142991
1215.29	0.138481
1224.93	0.189361
1234.58	0.193131
1244.22	0.089641
1253.87	0.053951
1263.51	0.030971
1273.16	0.041981
1282.8	0.047401
1292.45	0.038101
1302.09	0.028201
1311.74	0.010121
1321.38	0.004331
1331.03	0.002601
1340.67	0.002361
1350.32	0.002601
1359.96	0.003411
1369.61	0.003871
1379.25	0.004941
1388.9	0.006611
1398.54	0.009361
1408.18	0.016421
1417.83	0.041741
1427.47	0.080011
1437.12	0.057571
1446.76	0.026661
1456.41	0.027571
1466.05	0.036761
1475.7	0.066301
1485.34	0.180931
1494.99	0.406591
1504.63	0.382991
1514.28	0.139711
1523.92	0.045671
1533.57	0.021381
1543.21	0.011861
1552.86	0.006791
1562.5	0.005751
1572.15	0.007171
1581.79	0.012931
1591.44	0.022971
1601.08	0.023711
1610.73	0.012401
1620.37	0.011411
1630.01	0.011331
1639.66	0.007231
1649.3	0.005111
1658.95	0.004311
1668.59	0.003271
1678.24	0.002901
1687.88	0.002931
1697.53	0.002611
1707.17	0.002651
1716.82	0.003111
1726.46	0.005111
1736.11	0.008301
1745.75	0.007511
1755.4	0.004091
1765.04	0.002311
1774.69	0.001941
1784.33	0.001961
1793.98	0.002001
1803.62	0.002281
1813.27	0.002131
1822.91	0.002151
1832.55	0.002181
1842.2	0.003591
1851.84	0.008231
1861.49	0.010221
1871.13	0.004511
1880.78	0.002221
1890.42	0.001681
1900.07	0.0013159
1909.71	0.0011358
1919.36	0.0013201
1929	0.0012647
1938.65	0.001521
1948.29	0.001761
1957.94	0.002041
1967.58	0.002281
1977.23	0.002441
1986.87	0.002891
1996.52	0.003531
2006.16	0.003991
2015.81	0.003751
2025.45	0.002541
2035.1	0.002161
2044.74	0.001901
2054.38	0.0014865
2064.03	0.0013536
2073.67	0.0010783
2083.32	0.0013397
2092.96	0.001541
2102.61	0.001541
2112.25	0.0013604
2121.9	0.0011512
2131.54	0.001318
2141.19	0.0012202
2150.83	0.0013489
2160.48	0.001591
2170.12	0.001701
2179.77	0.001591
2189.41	0.001276
2199.06	0.0012004
2208.7	0.0014916
2218.35	0.001881
2227.99	0.002021
2237.64	0.001661
2247.28	0.001761
2256.92	0.002101
2266.57	0.002361
2276.21	0.002241
2285.86	0.001701
2295.5	0.001801
2305.15	0.002011
2314.79	0.002341
2324.44	0.001911
2334.08	0.001881
2343.73	0.001811
2353.37	0.001801
2363.02	0.0012748
2372.66	0.001661
2382.31	0.001531
2391.95	0.002161
2401.6	0.002141
2411.24	0.002231
2420.89	0.002241
2430.53	0.002381
2440.18	0.002241
2449.82	0.002481
2459.47	0.002731
2469.11	0.002811
2478.75	0.002661
2488.4	0.002391
2498.04	0.002071
2507.69	0.002041
2517.33	0.001521
2526.98	0.0014868
2536.62	0.0014875
2546.27	0.001541
2555.91	0.0014085
2565.56	0.0013515
2575.2	0.0012957
2584.85	0.001741
2594.49	0.0010446
2604.14	0.0008963
2613.78	0.00066
2623.43	0.001374
2633.07	0.0010928
2642.72	0.001741
2652.36	0.0012547
2662.01	0.0013486
2671.65	0.001601
2681.29	0.001721
2690.94	0.0013884
2700.58	0.0012914
2710.23	0.001581
2719.87	0.0012714
2729.52	0.0014069
2739.16	0.0012543
2748.81	0.0014862
2758.45	0.0014803
2768.1	0.0012682
2777.74	0.0009774
2787.39	0.0010076
2797.03	0.0011051
2806.68	0.0011093
2816.32	0.0006477
2825.97	0.0005105
2835.61	0.0010893
2845.26	0.0011818
2854.9	0.0012845
2864.55	0.002411
2874.19	0.002541
2883.84	0.002171
2893.48	0.002061
2903.12	0.001681
2912.77	0.001691
2922.41	0.002011
2932.06	0.0014296
2941.7	0.001601
2951.35	0.001751
2960.99	0.002961
2970.64	0.004241
2980.28	0.008091
2989.93	0.012051
2999.57	0.007571
3009.22	0.003741
3018.86	0.002531
3028.51	0.001961
3038.15	0.002321
3047.8	0.003391
3057.44	0.004151
3067.09	0.004101
3076.73	0.003301
3086.38	0.003491
3096.02	0.002481
3105.67	0.002051
3115.31	0.001631
3124.95	0.0014489
3134.6	0.0008848
3144.24	0.0010719
3153.89	0.0008577
3163.53	0.0006401
3173.18	0.0007719
3182.82	0.0008583
3192.47	0.0008823
3202.11	0.0009538
3211.76	0.0007602
3221.4	0.00056768
3231.05	0.0006324
3240.69	0.0006275
3250.34	0.0009954
3259.98	0.0008317
3269.63	0.0009308
3279.27	0.0006669
3288.92	0.0007507
3298.56	0.000906
3308.21	0.0009676
3317.85	0.0010602
3327.49	0.0010547
3337.14	0.000417
3346.78	0.000945
3356.43	0.0007836
3366.07	0.0004224
3375.72	0.0006566
3385.36	0.0009921
3395.01	0.0004648
3404.65	0.0010571
3414.3	0.000892
3423.94	0.001223
3433.59	0.0009108
3443.23	0.0006507
3452.88	0.0008843
3462.52	0.0008398
3472.17	0.0008945
3481.81	0.0008836
3491.46	0.0008393
3501.1	0.001157
3510.75	0.0007833
3520.39	0.000783
3530.04	0.00051479
3539.68	0.001451
3549.32	0.0010255
3558.97	0.0006927
3568.61	0.001561
3578.26	0.0011771
3587.9	0.0007648
3597.55	0.0011162
3607.19	0.0004855
3616.84	0.00057825
3626.48	0.0009852
3636.13	0.0009016
3645.77	0.0012544
3655.42	0.0007666
3665.06	0.001671
3674.71	0.001039
3684.35	0.0012252
3694	0.00059348
3703.64	0.0007488
3713.29	0.0010971
3722.93	0.0006441
3732.58	0.000981
3742.22	0.0010198
3751.86	0.0009747
3761.51	0.0004438
3771.15	0.0008722
3780.8	0.0008219
3790.44	0.0013334
3800.09	0.0011236
3809.73	0.0013903
3819.38	0.0013218
3829.02	0.001531
3838.67	0.0008398
3848.31	0.0010501
3857.96	0.0013314
3867.6	0.001041
3877.25	0.000753
3886.89	0.0007166
3896.54	0.0009192
3906.18	0.0012689
3915.83	0.0012787
3925.47	0.001006
3935.12	0.0011731
3944.76	0.0011055
3954.41	0.0009422
3964.05	0.00073
3973.69	0.0010948
3983.34	0.0006794
3992.98	0.0009247
