Infrared Spectrum: 3,4-Difluorobenzamide
Formula: C 7 H 5 F 2 N O
CAS: 85118-04-3
State: gas
Origin: EPA-IR VAPOR PHASE LIBRARY
1/CM	ABSORBANCE
549.8	0.003699
559.445	0.004239
569.09	0.007669
578.734	0.008209
588.379	0.008899
598.024	0.008799
607.669	0.006819
617.313	0.004279
626.958	0.004159
636.603	0.003939
646.248	0.003999
655.893	0.004129
665.537	0.003979
675.182	0.004409
684.827	0.004949
694.472	0.006269
704.116	0.007229
713.761	0.005739
723.406	0.005879
733.051	0.008209
742.695	0.012469
752.34	0.018629
761.985	0.018749
771.63	0.021049
781.275	0.019309
790.919	0.010629
800.564	0.006839
810.209	0.007059
819.854	0.009289
829.498	0.008929
839.143	0.006969
848.788	0.005769
858.433	0.005959
868.078	0.007919
877.722	0.008559
887.367	0.008109
897.012	0.007609
906.657	0.007609
916.301	0.009129
925.946	0.011229
935.591	0.008829
945.236	0.004209
954.88	0.003439
964.525	0.003329
974.17	0.003109
983.815	0.003059
993.46	0.002499
1003.1	0.002529
1012.75	0.003159
1022.39	0.003099
1032.04	0.001879
1041.68	0.001969
1051.33	0.002129
1060.97	0.003599
1070.62	0.004929
1080.26	0.004879
1089.91	0.006839
1099.55	0.007109
1109.2	0.008749
1118.84	0.008749
1128.49	0.008839
1138.13	0.004559
1147.78	0.003679
1157.42	0.003279
1167.07	0.002579
1176.71	0.002969
1186.36	0.005179
1196	0.009699
1205.64	0.021909
1215.29	0.023019
1224.93	0.012009
1234.58	0.006499
1244.22	0.007879
1253.87	0.008049
1263.51	0.012079
1273.16	0.031109
1282.8	0.043049
1292.45	0.025579
1302.09	0.014429
1311.74	0.013179
1321.38	0.018639
1331.03	0.036759
1340.67	0.066729
1350.32	0.072989
1359.96	0.042779
1369.61	0.014139
1379.25	0.008279
1388.9	0.007029
1398.54	0.007809
1408.18	0.012249
1417.83	0.021819
1427.47	0.029979
1437.12	0.022089
1446.76	0.007739
1456.41	0.004059
1466.05	0.003799
1475.7	0.004389
1485.34	0.005869
1494.99	0.010079
1504.63	0.022969
1514.28	0.051789
1523.92	0.050449
1533.57	0.019549
1543.21	0.008809
1552.86	0.008449
1562.5	0.011429
1572.15	0.017639
1581.79	0.032339
1591.44	0.040359
1601.08	0.035419
1610.73	0.031699
1620.37	0.024209
1630.01	0.012669
1639.66	0.006489
1649.3	0.005329
1658.95	0.005209
1668.59	0.006599
1678.24	0.009469
1687.88	0.014009
1697.53	0.017369
1707.17	0.032149
1716.82	0.077409
1726.46	0.087179
1736.11	0.043889
1745.75	0.017199
1755.4	0.013909
1765.04	0.010899
1774.69	0.006269
1784.33	0.003849
1793.98	0.003289
1803.62	0.002599
1813.27	0.002249
1822.91	0.001839
1832.55	0.002019
1842.2	0.001839
1851.84	0.001879
1861.49	0.002079
1871.13	0.001959
1880.78	0.0016891
1890.42	0.0015268
1900.07	0.001919
1909.71	0.001859
1919.36	0.001716
1929	0.0016174
1938.65	0.0013639
1948.29	0.0011753
1957.94	0.0012385
1967.58	0.0011959
1977.23	0.0012585
1986.87	0.0012124
1996.52	0.0011849
2006.16	0.0013974
2015.81	0.0014322
2025.45	0.0015028
2035.1	0.0013233
2044.74	0.0015841
2054.38	0.0017553
2064.03	0.0016529
2073.67	0.0011815
2083.32	0.0011617
2092.96	0.0010672
2102.61	0.0009496
2112.25	0.0010671
2121.9	0.0010781
2131.54	0.0010916
2141.19	0.0012266
2150.83	0.0009702
2160.48	0.000938
2170.12	0.0010062
2179.77	0.0010926
2189.41	0.0010002
2199.06	0.0009072
2208.7	0.0009875
2218.35	0.000942
2227.99	0.000928
2237.64	0.0009132
2247.28	0.0011021
2256.92	0.0009801
2266.57	0.0012623
2276.21	0.0011378
2285.86	0.0014176
2295.5	0.0013534
2305.15	0.0012898
2314.79	0.0011813
2324.44	0.0014365
2334.08	0.0009528
2343.73	0.00088817
2353.37	0.0009696
2363.02	0.0009045
2372.66	0.00085809
2382.31	0.0009988
2391.95	0.0009987
2401.6	0.0011037
2411.24	0.00084552
2420.89	0.0010079
2430.53	0.0010858
2440.18	0.00081836
2449.82	0.00086606
2459.47	0.0010666
2469.11	0.0010808
2478.75	0.0011256
2488.4	0.0009485
2498.04	0.00084485
2507.69	0.0010805
2517.33	0.0010091
2526.98	0.001216
2536.62	0.0015059
2546.27	0.0013585
2555.91	0.0014119
2565.56	0.0016219
2575.2	0.00082809
2584.85	0.0012974
2594.49	0.0010385
2604.14	0.0009295
2613.78	0.000966
2623.43	0.00086401
2633.07	0.0011262
2642.72	0.0009992
2652.36	0.0009308
2662.01	0.0009335
2671.65	0.000642
2681.29	0.0007878
2690.94	0.0009595
2700.58	0.0009087
2710.23	0.0006993
2719.87	0.0007386
2729.52	0.000804913
2739.16	0.000534
2748.81	0.00081239
2758.45	0.000559
2768.1	0.000581
2777.74	0.0010424
2787.39	0.001009
2797.03	0.0012426
2806.68	0.0010201
2816.32	0.0009917
2825.97	0.000392
2835.61	0.0010018
2845.26	0.0009093
2854.9	0.0007184
2864.55	0.0009769
2874.19	0.00088107
2883.84	0.000635
2893.48	0.0011877
2903.12	0.0009309
2912.77	0.000917
2922.41	0.000655
2932.06	0.0010484
2941.7	0.0011402
2951.35	0.0009979
2960.99	0.0011229
2970.64	0.0010145
2980.28	0.000695
2989.93	0.000651
2999.57	0.001178
3009.22	0.000551
3018.86	0.000982
3028.51	0.0007406
3038.15	0.0010638
3047.8	0.001479
3057.44	0.0015417
3067.09	0.002059
3076.73	0.002629
3086.38	0.002599
3096.02	0.0017099
3105.67	0.000673
3115.31	0.000974
3124.95	0.0010985
3134.6	0.00087882
3144.24	0.0010035
3153.89	0.0014309
3163.53	0.0013195
3173.18	0.0007119
3182.82	0.00086294
3192.47	0.0010837
3202.11	0.0010021
3211.76	0.0010011
3221.4	0.0012445
3231.05	0.00068
3240.69	0.0011833
3250.34	0.0007928
3259.98	0.0010294
3269.63	0.0011575
3279.27	0.00085822
3288.92	0.0011217
3298.56	0.0014164
3308.21	0.0013237
3317.85	0.00086795
3327.49	0.001032
3337.14	0.0014796
3346.78	0.0011602
3356.43	0.0010441
3366.07	0.0011713
3375.72	0.0010707
3385.36	0.0016702
3395.01	0.001959
3404.65	0.002779
3414.3	0.005099
3423.94	0.009229
3433.59	0.011999
3443.23	0.009339
3452.88	0.004219
3462.52	0.002319
3472.17	0.0017755
3481.81	0.0015744
3491.46	0.0017607
3501.1	0.001919
3510.75	0.002419
3520.39	0.003589
3530.04	0.004729
3539.68	0.007119
3549.32	0.008789
3558.97	0.006849
3568.61	0.003319
3578.26	0.001919
3587.9	0.0013271
3597.55	0.0012567
3607.19	0.0012898
3616.84	0.000678
3626.48	0.0009423
3636.13	0.000606
3645.77	0.0010434
3655.42	0.0012922
3665.06	0.0014507
3674.71	0.000643
3684.35	0.0009874
3694	0.0011353
3703.64	0.000241
3713.29	0.000593
3722.93	0.000634
3732.58	0.0011185
3742.22	0.000443
3751.86	0.0007278
3761.51	0.0010206
3771.15	0.00089085
3780.8	0.0007586
3790.44	0.0013476
3800.09	0.000686
3809.73	0.000427
3819.38	0.00088156
3829.02	0.00059
3838.67	0.00083521
3848.31	0.0010323
3857.96	0.0009678
3867.6	0.00087166
3877.25	0.000476
3886.89	0.000915
3896.54	0.0009007
3906.18	0.000605
3915.83	0.0011416
3925.47	0.0007104
3935.12	0.0007223
3944.76	0.0007185
3954.41	0.000508
3964.05	0.0013205
3973.69	0.00089812
3983.34	0.0009328
3992.98	0.000635
