Infrared Spectrum: Acetyltriisohexyl citrate
Formula: C26 H46 O8
CAS: 85261-16-1
State: SOLUTION (10% CCl4 FOR 2.7-7.5, CS2 FOR 7.5-26 MICRON) VS SOLVENT
Class: COBLENTZ III
Instrument: DOW KBr FOREPRISM-GRATING
Instrument parameters: BLAZED AT 3.5, 12.0, 20.0 MICRON AND CHANGED AT 5.0, 7.5, 14.9 MICRON
Sampling: TRANSMISSION
Path length: 0.011 CM, 0.011 CM
Resolution: 2
Origin: DOW CHEMICAL COMPANY
1/CM	TRANSMITTANCE
3800	0.845
3791	0.8451
3782	0.8454
3773	0.8456
3764	0.8461
3755	0.8466
3746	0.8471
3737	0.8484
3728	0.8497
3719	0.8509
3710	0.852
3701	0.8528
3692	0.8538
3683	0.8547
3674	0.8552
3665	0.8556
3656	0.8559
3647	0.856
3638	0.8561
3629	0.8564
3620	0.8567
3611	0.8573
3602	0.8578
3593	0.8587
3584	0.8597
3575	0.8606
3566	0.8614
3557	0.8621
3548	0.8628
3539	0.8635
3530	0.8641
3521	0.8645
3512	0.8648
3503	0.8646
3494	0.862
3485	0.8571
3476	0.8523
3467	0.8473
3458	0.8424
3449	0.8391
3440	0.8442
3431	0.8525
3422	0.8605
3413	0.8667
3404	0.8716
3395	0.8745
3386	0.8768
3377	0.8791
3368	0.8802
3359	0.8812
3350	0.8821
3341	0.8832
3332	0.8841
3323	0.8849
3314	0.8858
3305	0.8861
3296	0.8861
3287	0.8861
3278	0.886
3269	0.8859
3260	0.8858
3251	0.8857
3242	0.8855
3233	0.8848
3224	0.8841
3215	0.8827
3206	0.8797
3197	0.8747
3188	0.8725
3179	0.8713
3170	0.8704
3161	0.8695
3152	0.8687
3143	0.8678
3134	0.8671
3125	0.8663
3116	0.8654
3107	0.8646
3098	0.8639
3089	0.8628
3080	0.8605
3071	0.8566
3062	0.8518
3053	0.8451
3044	0.8365
3035	0.8256
3026	0.8106
3017	0.7872
3008	0.7311
2999	0.685
2990	0.5507
2981	0.3329
2972	0.1466
2963	0.0341
2954	0.0328
2945	0.1103
2936	0.1036
2927	0.0846
2918	0.1196
2909	0.1739
2900	0.2168
2891	0.301
2882	0.3544
2873	0.1779
2864	0.2672
2855	0.2934
2846	0.4724
2837	0.6164
2828	0.6742
2819	0.7342
2810	0.764
2801	0.7772
2792	0.7901
2783	0.8011
2774	0.8111
2765	0.8192
2756	0.8255
2747	0.8293
2738	0.8312
2729	0.8278
2720	0.8239
2711	0.8261
2702	0.8293
2693	0.8327
2684	0.835
2675	0.8365
2666	0.8381
2657	0.8402
2648	0.8425
2639	0.8452
2630	0.8481
2621	0.8494
2612	0.8503
2603	0.8505
2594	0.8506
2585	0.8507
2576	0.8509
2567	0.8509
2558	0.8525
2549	0.8544
2540	0.8561
2531	0.8573
2522	0.8586
2513	0.8598
2504	0.8606
2495	0.861
2486	0.8615
2477	0.8618
2468	0.8617
2459	0.8615
2450	0.8612
2441	0.8608
2432	0.8602
2423	0.8591
2414	0.858
2405	0.8571
2396	0.8564
2387	0.8556
2378	0.8548
2369	0.8551
2360	0.856
2351	0.8571
2342	0.858
2333	0.8578
2324	0.8571
2315	0.855
2306	0.8542
2297	0.8536
2288	0.8531
2279	0.8536
2270	0.8541
2261	0.8547
2252	0.8556
2243	0.8565
2234	0.8574
2225	0.8583
2216	0.8587
2207	0.859
2198	0.8593
2189	0.86
2180	0.8633
2171	0.8654
2162	0.8623
2153	0.8615
2144	0.8606
2135	0.8598
2126	0.8593
2117	0.8588
2108	0.8583
2099	0.8577
2090	0.8571
2081	0.8565
2072	0.8564
2063	0.8564
2054	0.8565
2045	0.8565
2036	0.8568
2027	0.8571
2018	0.8575
2009	0.858
2000	0.8587
1991	0.8597
1982	0.8604
1973	0.8607
1964	0.861
1955	0.8608
1946	0.8606
1937	0.8596
1928	0.8578
1919	0.8563
1910	0.8542
1901	0.851
1892	0.8474
1883	0.8445
1874	0.8425
1865	0.8385
1856	0.834
1847	0.8291
1838	0.8207
1829	0.814
1820	0.8058
1811	0.7901
1802	0.771
1793	0.7548
1784	0.7264
1775	0.5849
1766	0.2064
1757	0.0548
1748	0.0096
1739	0.0069
1730	0.0071
1721	0.1729
1712	0.4723
1703	0.5871
1694	0.6561
1685	0.7075
1676	0.7571
1667	0.7721
1658	0.7821
1649	0.7905
1640	0.7999
1631	0.8072
1622	0.8139
1613	0.8202
1604	0.8251
1595	0.8307
1586	0.8361
1577	0.8366
1568	0.8368
1559	0.8368
1550	0.837
1541	0.8362
1532	0.8325
1523	0.8258
1514	0.8169
1505	0.8028
1496	0.786
1487	0.7393
1478	0.5786
1469	0.2223
1460	0.2991
1451	0.4332
1442	0.4969
1433	0.4319
1424	0.5107
1415	0.4751
1406	0.5152
1397	0.3991
1388	0.3608
1379	0.2997
1370	0.1515
1361	0.29
1352	0.2783
1343	0.3062
1334	0.3791
1325	0.4405
1316	0.4621
1307	0.4344
1298	0.29
1289	0.1502
1280	0.1256
1271	0.1427
1262	0.1848
1253	0.2142
1244	0.1602
1235	0.0892
1226	0.0625
1217	0.0705
1208	0.0924
1199	0.1044
1190	0.0936
1181	0.0398
1172	0.0442
1163	0.1386
1154	0.2135
1145	0.1979
1136	0.1866
1127	0.2569
1118	0.3996
1109	0.5347
1100	0.5824
1091	0.6081
1082	0.5056
1073	0.3255
1064	0.2818
1055	0.3014
1046	0.2661
1037	0.2588
1028	0.3996
1019	0.4953
1010	0.3548
1001	0.3722
992	0.3101
983	0.4482
974	0.5117
965	0.5668
956	0.5778
947	0.6168
938	0.6993
929	0.733
920	0.7474
911	0.7489
902	0.7304
893	0.7311
884	0.7582
875	0.7828
866	0.7961
857	0.8193
848	0.8383
839	0.8267
830	0.8154
821	0.8125
812	0.8075
803	0.7905
794	0.7745
785	0.7655
776	0.7604
767	0.7832
758	0.8151
749	0.8187
740	0.8154
731	0.8124
722	0.815
713	0.8516
704	0.8613
695	0.8684
686	0.8708
677	0.8484
668	0.8238
659	0.7928
650	0.7781
641	0.8004
632	0.8293
623	0.8388
614	0.8268
605	0.7862
596	0.7761
587	0.8149
578	0.8267
569	0.8306
560	0.831
551	0.8278
542	0.8206
533	0.8058
524	0.7937
515	0.7937
506	0.7949
497	0.7949
488	0.7853
479	0.78
470	0.7811
461	0.7853
452	0.7834
443	0.7826
434	0.7826
425	0.7825
416	0.7828
407	0.7838
398	0.7895
