Infrared Spectrum: Ethyl 3-chloro-4-methylcarbanilate
Formula: C 10 H 12 Cl N O 2
CAS: 85419-40-5
State: gas
Origin: EPA-IR VAPOR PHASE LIBRARY
1/CM	ABSORBANCE
549.8	0.011323
559.445	0.010013
569.09	0.009953
578.734	0.009783
588.379	0.006313
598.024	0.004763
607.669	0.004073
617.313	0.002763
626.958	0.002183
636.603	0.001903
646.248	0.001993
655.893	0.002013
665.537	0.002833
675.182	0.004823
684.827	0.011313
694.472	0.015113
704.116	0.008373
713.761	0.005883
723.406	0.005523
733.051	0.005903
742.695	0.006613
752.34	0.008103
761.985	0.013313
771.63	0.016193
781.275	0.012963
790.919	0.014793
800.564	0.019213
810.209	0.017503
819.854	0.013843
829.498	0.008753
839.143	0.008593
848.788	0.013753
858.433	0.017323
868.078	0.025653
877.722	0.027563
887.367	0.017033
897.012	0.009983
906.657	0.009683
916.301	0.010753
925.946	0.014493
935.591	0.013103
945.236	0.008203
954.88	0.006483
964.525	0.007813
974.17	0.010223
983.815	0.013393
993.46	0.016573
1003.1	0.014573
1012.75	0.010743
1022.39	0.010943
1032.04	0.016523
1041.68	0.037663
1051.33	0.075563
1060.97	0.090063
1070.62	0.102073
1080.26	0.071723
1089.91	0.054043
1099.55	0.052063
1109.2	0.030603
1118.84	0.018903
1128.49	0.016003
1138.13	0.017153
1147.78	0.024263
1157.42	0.033633
1167.07	0.049833
1176.71	0.093093
1186.36	0.220693
1196	0.376653
1205.64	0.229673
1215.29	0.150643
1224.93	0.069313
1234.58	0.054243
1244.22	0.051053
1253.87	0.034683
1263.51	0.046463
1273.16	0.061463
1282.8	0.052303
1292.45	0.066143
1302.09	0.073933
1311.74	0.078603
1321.38	0.062643
1331.03	0.035573
1340.67	0.022553
1350.32	0.019083
1359.96	0.025413
1369.61	0.044913
1379.25	0.076443
1388.9	0.074473
1398.54	0.062263
1408.18	0.037373
1417.83	0.024253
1427.47	0.022403
1437.12	0.027823
1446.76	0.038833
1456.41	0.045663
1466.05	0.052363
1475.7	0.067743
1485.34	0.092103
1494.99	0.156253
1504.63	0.269203
1514.28	0.252653
1523.92	0.143923
1533.57	0.074633
1543.21	0.041663
1552.86	0.033883
1562.5	0.039153
1572.15	0.055713
1581.79	0.070613
1591.44	0.048403
1601.08	0.045113
1610.73	0.069133
1620.37	0.043763
1630.01	0.016403
1639.66	0.010373
1649.3	0.008533
1658.95	0.008003
1668.59	0.007933
1678.24	0.008123
1687.88	0.008983
1697.53	0.010693
1707.17	0.014023
1716.82	0.018523
1726.46	0.027513
1736.11	0.054273
1745.75	0.127283
1755.4	0.213893
1765.04	0.192393
1774.69	0.091103
1784.33	0.037833
1793.98	0.020843
1803.62	0.013473
1813.27	0.011353
1822.91	0.009013
1832.55	0.006853
1842.2	0.005663
1851.84	0.005003
1861.49	0.004503
1871.13	0.003863
1880.78	0.003483
1890.42	0.003383
1900.07	0.003043
1909.71	0.002683
1919.36	0.002693
1929	0.002673
1938.65	0.002573
1948.29	0.002353
1957.94	0.002243
1967.58	0.002113
1977.23	0.001993
1986.87	0.001773
1996.52	0.001593
2006.16	0.001453
2015.81	0.001373
2025.45	0.001303
2035.1	0.001303
2044.74	0.001343
2054.38	0.001383
2064.03	0.001543
2073.67	0.001663
2083.32	0.001743
2092.96	0.001913
2102.61	0.001843
2112.25	0.001693
2121.9	0.001623
2131.54	0.001513
2141.19	0.001403
2150.83	0.001533
2160.48	0.001763
2170.12	0.002103
2179.77	0.002423
2189.41	0.002603
2199.06	0.002453
2208.7	0.002193
2218.35	0.001893
2227.99	0.001883
2237.64	0.002053
2247.28	0.002363
2256.92	0.003113
2266.57	0.004543
2276.21	0.005313
2285.86	0.003673
2295.5	0.002243
2305.15	0.001703
2314.79	0.001423
2324.44	0.001363
2334.08	0.001243
2343.73	0.001323
2353.37	0.001293
2363.02	0.001443
2372.66	0.001433
2382.31	0.001453
2391.95	0.001353
2401.6	0.001363
2411.24	0.001303
2420.89	0.001473
2430.53	0.001443
2440.18	0.001493
2449.82	0.001383
2459.47	0.001213
2469.11	0.001183
2478.75	0.001313
2488.4	0.001363
2498.04	0.001393
2507.69	0.001273
2517.33	0.001203
2526.98	0.001293
2536.62	0.001273
2546.27	0.001243
2555.91	0.0010906
2565.56	0.0011583
2575.2	0.001203
2584.85	0.001183
2594.49	0.0010981
2604.14	0.001093
2613.78	0.0009908
2623.43	0.0009018
2633.07	0.0009107
2642.72	0.0009317
2652.36	0.0008777
2662.01	0.001127
2671.65	0.0010912
2681.29	0.0010009
2690.94	0.0010785
2700.58	0.0011729
2710.23	0.001213
2719.87	0.001423
2729.52	0.001523
2739.16	0.001583
2748.81	0.002123
2758.45	0.001973
2768.1	0.001793
2777.74	0.001723
2787.39	0.001513
2797.03	0.001603
2806.68	0.001863
2816.32	0.002283
2825.97	0.002433
2835.61	0.002863
2845.26	0.003743
2854.9	0.004963
2864.55	0.007153
2874.19	0.009813
2883.84	0.010963
2893.48	0.010543
2903.12	0.011643
2912.77	0.013843
2922.41	0.016463
2932.06	0.024633
2941.7	0.032323
2951.35	0.024493
2960.99	0.023153
2970.64	0.028543
2980.28	0.038203
2989.93	0.039873
2999.57	0.026893
3009.22	0.019063
3018.86	0.014163
3028.51	0.014493
3038.15	0.013823
3047.8	0.010933
3057.44	0.008623
3067.09	0.006653
3076.73	0.005343
3086.38	0.004563
3096.02	0.004453
3105.67	0.004303
3115.31	0.003293
3124.95	0.002543
3134.6	0.001953
3144.24	0.001743
3153.89	0.001353
3163.53	0.001243
3173.18	0.0011248
3182.82	0.0009005
3192.47	0.0009789
3202.11	0.0008836
3211.76	0.0007712
3221.4	0.0007258
3231.05	0.0006193
3240.69	0.0004903
3250.34	0.0004435
3259.98	0.0004364
3269.63	0.0004721
3279.27	0.0004094
3288.92	0.0003816
3298.56	0.00025449
3308.21	0.00025195
3317.85	0.0003095
3327.49	0.0003384
3337.14	0.0004764
3346.78	0.00019773
3356.43	0.000281
3366.07	0.0004191
3375.72	0.0004048
3385.36	0.0005716
3395.01	0.0005764
3404.65	0.0008627
3414.3	0.0009999
3423.94	0.001993
3433.59	0.003733
3443.23	0.007633
3452.88	0.014223
3462.52	0.022043
3472.17	0.019983
3481.81	0.008903
3491.46	0.004163
3501.1	0.002923
3510.75	0.002403
3520.39	0.001733
3530.04	0.0010286
3539.68	0.0006933
3549.32	0.0005775
3558.97	0.0004537
3568.61	0.0004189
3578.26	0.0004073
3587.9	0.0002587
3597.55	0.0001449
3607.19	0.00020566
3616.84	0.0002164
3626.48	7e-06
3636.13	0.00018742
3645.77	0.0001557
3655.42	0.00021977
3665.06	0.0001224
3674.71	0.00023001
3684.35	0.00024724
3694	0.00022267
3703.64	0.00025042
3713.29	0.0002744
3722.93	0.0002556
3732.58	0.0003712
3742.22	0.00019533
3751.86	0.0001553
3761.51	4.9e-05
3771.15	0.0003708
3780.8	0.0003002
3790.44	0.0002805
3800.09	0.000442
3809.73	0.00027064
3819.38	0.0002979
3829.02	0.0002887
3838.67	0.00019398
3848.31	0.00021644
3857.96	0.0003328
3867.6	0.0003245
3877.25	0.0002795
3886.89	0.00026592
3896.54	0.0004837
3906.18	0.00021616
3915.83	0.00020417
3925.47	0.000273
3935.12	0.0003851
3944.76	0.0003833
3954.41	0.0004484
3964.05	0.0004118
3973.69	0.0005317
3983.34	0.0005135
3992.98	0.0004622
