Infrared Spectrum: BENZENAMINE, 3,5-DIMETHYL-, HYDROCHLORIDE
Formula: C8 H12 Cl N
CAS: 85518-76-9
State: SOLID (KBr DISC, 0.9% WT.)
Class: COBLENTZ III
Instrument: PERKIN-ELMER 157
Sampling: TRANSMISSION
Resolution: 2
Origin: BRITISH PETROLEUM CO. LTD., ENGLAND
1/CM	TRANSMITTANCE
667	0.8755
676	0.4612
685	0.6418
694	0.9219
703	0.9174
712	0.9065
721	0.8902
730	0.88
739	0.869
748	0.8656
757	0.8565
766	0.8507
775	0.8455
784	0.8417
793	0.8244
802	0.8217
811	0.806
820	0.8015
829	0.7723
838	0.6632
847	0.1473
856	0.349
865	0.7795
874	0.7819
883	0.7331
892	0.7793
901	0.7449
910	0.7824
919	0.7783
928	0.7651
937	0.7371
946	0.7277
955	0.7735
964	0.7644
973	0.7598
982	0.7326
991	0.6994
1000	0.61
1009	0.6507
1018	0.5341
1027	0.5527
1036	0.4817
1045	0.4026
1054	0.4331
1063	0.4387
1072	0.3592
1081	0.4189
1090	0.4436
1099	0.2242
1108	0.1188
1117	0.2758
1126	0.4935
1135	0.6654
1144	0.6797
1153	0.6573
1162	0.5356
1171	0.6978
1180	0.7021
1189	0.6976
1198	0.6861
1207	0.6787
1216	0.6775
1225	0.6693
1234	0.6677
1243	0.6613
1252	0.6521
1261	0.6488
1270	0.6439
1279	0.5924
1288	0.5889
1297	0.4351
1306	0.5209
1315	0.409
1324	0.5956
1333	0.5933
1342	0.5761
1351	0.5643
1360	0.5458
1369	0.5063
1378	0.4337
1387	0.3507
1396	0.4471
1405	0.4146
1414	0.3938
1423	0.3298
1432	0.2967
1441	0.2476
1450	0.1955
1459	0.1634
1468	0.1108
1477	0.0615
1486	0.0789
1495	0.1112
1504	0.1148
1513	0.057
1522	0.0938
1531	0.1793
1540	0.2286
1549	0.1913
1558	0.1227
1567	0.0747
1576	0.1214
1585	0.1176
1594	0.0951
1603	0.0998
1612	0.1413
1621	0.349
1630	0.3119
1639	0.3707
1648	0.5251
1657	0.6226
1666	0.6308
1675	0.6634
1684	0.6615
1693	0.6562
1702	0.6439
1711	0.6374
1720	0.6048
1729	0.571
1738	0.5746
1747	0.5818
1756	0.5877
1765	0.5675
1774	0.5364
1783	0.4917
1792	0.5239
1801	0.5393
1810	0.538
1819	0.5285
1828	0.517
1837	0.5089
1846	0.507
1855	0.4901
1864	0.4649
1873	0.4263
1882	0.3956
1891	0.3693
1900	0.343
1909	0.2995
1918	0.2834
1927	0.2867
1936	0.3057
1945	0.3236
1954	0.3388
1963	0.3792
1972	0.438
1981	0.5013
1990	0.5236
1999	0.5315
2008	0.5407
2017	0.5576
2026	0.5615
2035	0.5615
2044	0.5582
2053	0.5521
2062	0.5511
2071	0.5497
2080	0.547
2089	0.543
2098	0.5332
2107	0.5271
2116	0.5254
2125	0.5256
2134	0.5263
2143	0.5272
2152	0.527
2161	0.5261
2170	0.5239
2179	0.52
2188	0.5153
2197	0.5085
2206	0.4981
2215	0.4886
2224	0.486
2233	0.4846
2242	0.4845
2251	0.4848
2260	0.4857
2269	0.4867
2278	0.4874
2287	0.4879
2296	0.4878
2305	0.487
2314	0.4795
2323	0.464
2332	0.4536
2341	0.4415
2350	0.427
2359	0.4056
2368	0.3955
2377	0.3831
2386	0.3764
2395	0.3741
2404	0.3685
2413	0.3596
2422	0.347
2431	0.321
2440	0.3041
2449	0.2897
2458	0.2752
2467	0.2605
2476	0.2461
2485	0.2311
2494	0.215
2503	0.1966
2512	0.179
2521	0.1605
2530	0.1175
2539	0.0769
2548	0.0575
2557	0.0477
2566	0.0398
2575	0.0369
2584	0.0357
2593	0.0352
2602	0.0328
2611	0.036
2620	0.0397
2629	0.0443
2638	0.0505
2647	0.0553
2656	0.0566
2665	0.0569
2674	0.0566
2683	0.0561
2692	0.055
2701	0.0528
2710	0.0484
2719	0.0426
2728	0.0333
2737	0.0247
2746	0.0176
2755	0.0152
2764	0.0141
2773	0.0124
2782	0.0094
2791	0.0069
2800	0.0066
2809	0.0066
2818	0.0066
2827	0.0068
2836	0.007
2845	0.0071
2854	0.0073
2863	0.0076
2872	0.0081
2881	0.0086
2890	0.0097
2899	0.0127
2908	0.0145
2917	0.0148
2926	0.0151
2935	0.0153
2944	0.0155
2953	0.0157
2962	0.02
2971	0.0241
2980	0.0258
2989	0.0269
2998	0.0275
3007	0.0281
3016	0.0287
3025	0.0294
3034	0.0302
3043	0.031
3052	0.0318
3061	0.033
3070	0.0365
3079	0.0502
3088	0.0675
3097	0.0771
3106	0.0823
3115	0.1015
3124	0.1206
3133	0.1396
3142	0.1589
3151	0.1706
3160	0.1758
3169	0.19
3178	0.2168
3187	0.2434
3196	0.2698
3205	0.2962
3214	0.3336
3223	0.347
3232	0.3683
3241	0.3949
3250	0.4052
3259	0.4103
3268	0.414
3277	0.417
3286	0.419
3295	0.4204
3304	0.4211
3313	0.4216
3322	0.4218
3331	0.4217
3340	0.4213
3349	0.4203
3358	0.4191
3367	0.4176
3376	0.416
3385	0.4147
3394	0.4136
3403	0.4126
3412	0.4123
3421	0.412
3430	0.4116
3439	0.4105
3448	0.4089
3457	0.4074
3466	0.4062
3475	0.405
3484	0.4046
3493	0.4052
3502	0.4059
3511	0.4067
3520	0.4076
3529	0.4083
3538	0.4091
3547	0.4099
3556	0.4107
3565	0.4115
3574	0.4125
3583	0.4134
3592	0.4142
3601	0.4145
3610	0.4148
3619	0.4151
3628	0.4154
3637	0.4156
3646	0.4154
3655	0.4152
3664	0.4151
3673	0.4149
3682	0.4146
3691	0.4141
3700	0.4137
3709	0.4132
3718	0.4124
3727	0.4114
3736	0.4103
3745	0.4088
3754	0.4065
3763	0.402
3772	0.3974
3781	0.3927
3790	0.3904
3799	0.3896
3808	0.3889
3817	0.3882
3826	0.3853
3835	0.3818
3844	0.3802
3853	0.3794
3862	0.3789
3871	0.3783
3880	0.3752
3889	0.3679
3898	0.3631
3907	0.3605
3916	0.3595
3925	0.3587
3934	0.3577
3943	0.3568
3952	0.3536
3961	0.3478
3970	0.3421
3979	0.3399
3988	0.3384
3997	0.3374
