Infrared Spectrum: Methyl 4,4,4-trifluorocrotonate
Formula: C 5 H 5 F 3 O 2
CAS: 85694-31-1
State: gas
Origin: EPA-IR VAPOR PHASE LIBRARY
1/CM	ABSORBANCE
549.8	0.00172
559.445	0.0015375
569.09	0.00296
578.734	0.00255
588.379	0.00196
598.024	0.00249
607.669	0.00196
617.313	0.00461
626.958	0.01255
636.603	0.04782
646.248	0.04546
655.893	0.01009
665.537	0.00409
675.182	0.002
684.827	0.00247
694.472	0.00161
704.116	0.00245
713.761	0.00329
723.406	0.00431
733.051	0.00387
742.695	0.00221
752.34	0.00162
761.985	0.0024
771.63	0.00248
781.275	0.0015876
790.919	0.00172
800.564	0.00251
810.209	0.00222
819.854	0.0018
829.498	0.00346
839.143	0.00525
848.788	0.01128
858.433	0.01258
868.078	0.01216
877.722	0.01339
887.367	0.00792
897.012	0.00662
906.657	0.00904
916.301	0.01361
925.946	0.01725
935.591	0.01551
945.236	0.01509
954.88	0.0207
964.525	0.03035
974.17	0.03461
983.815	0.02614
993.46	0.0216
1003.1	0.03582
1012.75	0.04118
1022.39	0.03224
1032.04	0.03843
1041.68	0.02625
1051.33	0.0125
1060.97	0.01121
1070.62	0.01123
1080.26	0.01385
1089.91	0.01352
1099.55	0.01209
1109.2	0.01896
1118.84	0.03336
1128.49	0.08202
1138.13	0.25538
1147.78	0.48921
1157.42	0.39351
1167.07	0.16446
1176.71	0.0905
1186.36	0.07602
1196	0.0771
1205.64	0.07453
1215.29	0.06705
1224.93	0.06353
1234.58	0.07782
1244.22	0.12435
1253.87	0.21119
1263.51	0.24298
1273.16	0.18785
1282.8	0.12666
1292.45	0.11834
1302.09	0.28491
1311.74	0.45334
1321.38	0.26086
1331.03	0.07448
1340.67	0.02665
1350.32	0.0177
1359.96	0.01386
1369.61	0.01197
1379.25	0.01093
1388.9	0.00932
1398.54	0.0082
1408.18	0.00818
1417.83	0.00913
1427.47	0.01464
1437.12	0.03591
1446.76	0.03545
1456.41	0.01335
1466.05	0.0094
1475.7	0.00787
1485.34	0.00713
1494.99	0.00649
1504.63	0.00515
1514.28	0.00445
1523.92	0.00453
1533.57	0.00484
1543.21	0.00538
1552.86	0.00539
1562.5	0.00528
1572.15	0.00495
1581.79	0.00547
1591.44	0.0052
1601.08	0.00465
1610.73	0.00405
1620.37	0.00402
1630.01	0.00418
1639.66	0.00622
1649.3	0.00904
1658.95	0.01254
1668.59	0.01479
1678.24	0.01195
1687.88	0.0082
1697.53	0.00801
1707.17	0.01025
1716.82	0.01631
1726.46	0.03102
1736.11	0.06367
1745.75	0.11643
1755.4	0.15199
1765.04	0.12384
1774.69	0.06125
1784.33	0.02781
1793.98	0.01275
1803.62	0.00666
1813.27	0.0043
1822.91	0.00351
1832.55	0.00371
1842.2	0.00405
1851.84	0.0039
1861.49	0.00395
1871.13	0.00383
1880.78	0.00327
1890.42	0.00302
1900.07	0.00246
1909.71	0.00196
1919.36	0.00186
1929	0.00195
1938.65	0.00181
1948.29	0.00181
1957.94	0.00162
1967.58	0.00179
1977.23	0.0018
1986.87	0.00189
1996.52	0.00225
2006.16	0.00294
2015.81	0.00303
2025.45	0.00317
2035.1	0.00301
2044.74	0.00333
2054.38	0.00306
2064.03	0.00296
2073.67	0.00251
2083.32	0.00205
2092.96	0.00248
2102.61	0.00278
2112.25	0.00328
2121.9	0.00296
2131.54	0.00246
2141.19	0.00234
2150.83	0.00234
2160.48	0.00248
2170.12	0.00223
2179.77	0.00227
2189.41	0.00185
2199.06	0.00165
2208.7	0.0015901
2218.35	0.0015099
2227.99	0.0014365
2237.64	0.0016086
2247.28	0.00167
2256.92	0.00174
2266.57	0.00177
2276.21	0.00199
2285.86	0.00257
2295.5	0.00272
2305.15	0.00251
2314.79	0.00202
2324.44	0.00209
2334.08	0.00183
2343.73	0.00168
2353.37	0.00183
2363.02	0.0012862
2372.66	0.0014081
2382.31	0.0017
2391.95	0.0012769
2401.6	0.0014717
2411.24	0.00164
2420.89	0.0014624
2430.53	0.0014171
2440.18	0.00166
2449.82	0.0014657
2459.47	0.00188
2469.11	0.0015843
2478.75	0.0013185
2488.4	0.0012001
2498.04	0.0013225
2507.69	0.0013803
2517.33	0.001243
2526.98	0.0013897
2536.62	0.0014326
2546.27	0.00181
2555.91	0.00162
2565.56	0.0008803
2575.2	0.0008267
2584.85	0.0011779
2594.49	0.001323
2604.14	0.0012884
2613.78	0.0011009
2623.43	0.0014211
2633.07	0.0012747
2642.72	0.0009365
2652.36	0.0007742
2662.01	0.001151
2671.65	0.0009777
2681.29	0.0009295
2690.94	0.0009162
2700.58	0.00070792
2710.23	0.0010908
2719.87	0.0008092
2729.52	0.000415
2739.16	0.0009261
2748.81	0.000732
2758.45	0.0008154
2768.1	0.0011458
2777.74	0.0009279
2787.39	0.0009242
2797.03	0.0012225
2806.68	0.0013155
2816.32	0.0008097
2825.97	0.00178
2835.61	0.00269
2845.26	0.00389
2854.9	0.00557
2864.55	0.00372
2874.19	0.00257
2883.84	0.00272
2893.48	0.00359
2903.12	0.00412
2912.77	0.00547
2922.41	0.00455
2932.06	0.00454
2941.7	0.00636
2951.35	0.01322
2960.99	0.03025
2970.64	0.02556
2980.28	0.00827
2989.93	0.0068
2999.57	0.00785
3009.22	0.00879
3018.86	0.00811
3028.51	0.00735
3038.15	0.00694
3047.8	0.00485
3057.44	0.00467
3067.09	0.00422
3076.73	0.0041
3086.38	0.0037
3096.02	0.0029
3105.67	0.00292
3115.31	0.00165
3124.95	0.00184
3134.6	0.00154
3144.24	0.002
3153.89	0.0014455
3163.53	0.00201
3173.18	0.0015012
3182.82	0.0011152
3192.47	0.0007269
3202.11	0.000971
3211.76	0.00149
3221.4	0.0009511
3231.05	0.0005717
3240.69	0.0008524
3250.34	0.0009593
3259.98	0.0009648
3269.63	0.0010365
3279.27	0.0008478
3288.92	0.00064787
3298.56	0.0008579
3308.21	0.00062278
3317.85	0.0006683
3327.49	0.00068032
3337.14	0.0012626
3346.78	0.0011468
3356.43	0
3366.07	0.0013432
3375.72	0.0008524
3385.36	0.0010565
3395.01	0.0010775
3404.65	0.0012142
3414.3	0.0012297
3423.94	0.00165
3433.59	0.0011904
3443.23	0.0009199
3452.88	0.0009149
3462.52	0.001369
3472.17	0.0014025
3481.81	0.00163
3491.46	0.00262
3501.1	0.00341
3510.75	0.00182
3520.39	0.00176
3530.04	0.0013
3539.68	0.0011225
3549.32	0.00043
3558.97	0.0008928
3568.61	0.001481
3578.26	0.0013612
3587.9	0.0007607
3597.55	0.001307
3607.19	0.0011654
3616.84	0.0012389
3626.48	0.001055
3636.13	0.0009926
3645.77	0.001295
3655.42	0.000491
3665.06	0.0011458
3674.71	0.0011524
3684.35	0.0007533
3694	0.000853
3703.64	0.0010539
3713.29	0.000479
3722.93	0.0014355
3732.58	0.001403
3742.22	0.0009215
3751.86	0.0016015
3761.51	0.0015975
3771.15	0.0015214
3780.8	0.00070856
3790.44	0.001294
3800.09	0.0009801
3809.73	0.000474
3819.38	0.001323
3829.02	0.000454
3838.67	0.0008776
3848.31	0.0011804
3857.96	0.0010691
3867.6	0.000468
3877.25	0.0012243
3886.89	0.0015208
3896.54	0.00107
3906.18	0.0009414
3915.83	0.000994
3925.47	0.000841
3935.12	0.0015528
3944.76	0.00063688
3954.41	0.00223
3964.05	0.0014488
3973.69	0.0016019
3983.34	0.0012443
3992.98	0.0005204
