Infrared Spectrum: 2-Chloro-4-fluorobenzenesulphonyl chloride
Formula: C 6 H 3 Cl 2 F O 2 S
CAS: 85958-57-2
State: gas
Origin: EPA-IR VAPOR PHASE LIBRARY
1/CM	ABSORBANCE
549.8	0.034898
559.445	0.095728
569.09	0.137518
578.734	0.049178
588.379	0.063708
598.024	0.115478
607.669	0.039778
617.313	0.011548
626.958	0.011368
636.603	0.019968
646.248	0.065998
655.893	0.095218
665.537	0.031488
675.182	0.007838
684.827	0.008238
694.472	0.014118
704.116	0.010198
713.761	0.003288
723.406	0.002568
733.051	0.003158
742.695	0.002648
752.34	0.003048
761.985	0.003538
771.63	0.003058
781.275	0.002248
790.919	0.0013786
800.564	0.003158
810.209	0.012428
819.854	0.022408
829.498	0.010658
839.143	0.004028
848.788	0.004928
858.433	0.020878
868.078	0.050198
877.722	0.026408
887.367	0.012308
897.012	0.022668
906.657	0.064508
916.301	0.092358
925.946	0.027538
935.591	0.008818
945.236	0.005498
954.88	0.003558
964.525	0.002248
974.17	0.002068
983.815	0.002038
993.46	0.0015037
1003.1	0.001718
1012.75	0.002948
1022.39	0.010398
1032.04	0.029198
1041.68	0.019168
1051.33	0.005538
1060.97	0.003838
1070.62	0.002728
1080.26	0.002788
1089.91	0.008978
1099.55	0.013978
1109.2	0.009378
1118.84	0.008288
1128.49	0.010108
1138.13	0.009138
1147.78	0.008678
1157.42	0.015378
1167.07	0.030918
1176.71	0.084108
1186.36	0.193978
1196	0.168218
1205.64	0.087358
1215.29	0.127828
1224.93	0.051578
1234.58	0.012058
1244.22	0.008048
1253.87	0.013018
1263.51	0.034338
1273.16	0.048268
1282.8	0.030168
1292.45	0.014478
1302.09	0.009548
1311.74	0.006458
1321.38	0.004878
1331.03	0.004738
1340.67	0.005248
1350.32	0.005868
1359.96	0.007488
1369.61	0.010288
1379.25	0.018658
1388.9	0.041838
1398.54	0.135358
1408.18	0.203588
1417.83	0.078708
1427.47	0.018278
1437.12	0.017218
1446.76	0.022858
1456.41	0.049368
1466.05	0.064228
1475.7	0.055238
1485.34	0.018108
1494.99	0.005788
1504.63	0.005348
1514.28	0.006308
1523.92	0.007398
1533.57	0.008688
1543.21	0.011358
1552.86	0.020878
1562.5	0.047468
1572.15	0.104648
1581.79	0.151158
1591.44	0.135958
1601.08	0.057288
1610.73	0.027458
1620.37	0.017348
1630.01	0.013298
1639.66	0.010128
1649.3	0.006538
1658.95	0.004038
1668.59	0.002538
1678.24	0.002348
1687.88	0.002508
1697.53	0.002108
1707.17	0.001908
1716.82	0.002168
1726.46	0.003188
1736.11	0.003778
1745.75	0.002998
1755.4	0.002958
1765.04	0.003268
1774.69	0.003098
1784.33	0.002318
1793.98	0.001708
1803.62	0.001648
1813.27	0.001598
1822.91	0.001628
1832.55	0.001668
1842.2	0.0011414
1851.84	0.0011578
1861.49	0.0010407
1871.13	0.001309
1880.78	0.001558
1890.42	0.002128
1900.07	0.003238
1909.71	0.004118
1919.36	0.002768
1929	0.002018
1938.65	0.002078
1948.29	0.002168
1957.94	0.001778
1967.58	0.0013304
1977.23	0.0012405
1986.87	0.0010364
1996.52	0.0009716
2006.16	0.0013247
2015.81	0.0011909
2025.45	0.0012302
2035.1	0.0012241
2044.74	0.0012817
2054.38	0.0011266
2064.03	0.0011315
2073.67	0.0011556
2083.32	0.001068
2092.96	0.0013163
2102.61	0.0013514
2112.25	0.002098
2121.9	0.002698
2131.54	0.003048
2141.19	0.001768
2150.83	0.0013695
2160.48	0.0014307
2170.12	0.001515
2179.77	0.001658
2189.41	0.001728
2199.06	0.0011535
2208.7	0.0012822
2218.35	0.0013157
2227.99	0.0014425
2237.64	0.0014015
2247.28	0.0013499
2256.92	0.0015113
2266.57	0.001608
2276.21	0.001588
2285.86	0.001638
2295.5	0.0014592
2305.15	0.0010322
2314.79	0.0015238
2324.44	0.0012324
2334.08	0.0012089
2343.73	0.0010486
2353.37	0.0013258
2363.02	0.0013806
2372.66	0.001998
2382.31	0.0015132
2391.95	0.0013342
2401.6	0.001628
2411.24	0.0013405
2420.89	0.0014513
2430.53	0.0011862
2440.18	0.0012861
2449.82	0.0013612
2459.47	0.0014157
2469.11	0.0015051
2478.75	0.002498
2488.4	0.002768
2498.04	0.002448
2507.69	0.002258
2517.33	0.001788
2526.98	0.001998
2536.62	0.001818
2546.27	0.002888
2555.91	0.003378
2565.56	0.003408
2575.2	0.003098
2584.85	0.002538
2594.49	0.001988
2604.14	0.001788
2613.78	0.001432
2623.43	0.0010223
2633.07	0.001568
2642.72	0.0013586
2652.36	0.0014298
2662.01	0.001386
2671.65	0.0014061
2681.29	0.0015219
2690.94	0.001558
2700.58	0.001022
2710.23	0.0014539
2719.87	0.001373
2729.52	0.0014732
2739.16	0.0014772
2748.81	0.001608
2758.45	0.0010788
2768.1	0.0011521
2777.74	0.001608
2787.39	0.001878
2797.03	0.0014202
2806.68	0.0010594
2816.32	0.0010627
2825.97	0.0008865
2835.61	0.0011073
2845.26	0.0012804
2854.9	0.0012941
2864.55	0.0013401
2874.19	0.0012059
2883.84	0.001014
2893.48	0.0006586
2903.12	0.000753
2912.77	0.0013315
2922.41	0.0012392
2932.06	0.001688
2941.7	0.0010828
2951.35	0.0011212
2960.99	0.001011
2970.64	0.0010197
2980.28	0.0012766
2989.93	0.0009216
2999.57	0.000943
3009.22	0.0014024
3018.86	0.0013022
3028.51	0.002098
3038.15	0.0014144
3047.8	0.001718
3057.44	0.0011019
3067.09	0.001648
3076.73	0.001848
3086.38	0.003828
3096.02	0.005528
3105.67	0.006168
3115.31	0.003128
3124.95	0.0012428
3134.6	0.0011826
3144.24	0.0011867
3153.89	0.001558
3163.53	0.0008969
3173.18	0.001708
3182.82	0.001588
3192.47	0.0010112
3202.11	0.00056928
3211.76	0.0007196
3221.4	0.0011886
3231.05	0.0010508
3240.69	0.0010618
3250.34	0.0009409
3259.98	0.0009069
3269.63	0.0011416
3279.27	0.00054542
3288.92	0.0007843
3298.56	0.0007787
3308.21	0.0009282
3317.85	0.0009104
3327.49	0.0009597
3337.14	0.0004336
3346.78	0.000931
3356.43	0.0007302
3366.07	0.0011753
3375.72	0.000281
3385.36	0.0010371
3395.01	0.0014694
3404.65	0.0009495
3414.3	0.0007842
3423.94	0.0006509
3433.59	0.0010956
3443.23	0.0010136
3452.88	0.0014292
3462.52	0.000417
3472.17	0.00055557
3481.81	0.0011109
3491.46	0.0007596
3501.1	0.0012008
3510.75	0.0007712
3520.39	0.0010338
3530.04	0.0012568
3539.68	0.0010143
3549.32	0.000875
3558.97	0.0011261
3568.61	0.0008206
3578.26	0.0012631
3587.9	0.0011644
3597.55	0.001008
3607.19	0.0009305
3616.84	0.0013118
3626.48	0.0010309
3636.13	0.0013479
3645.77	0.0006962
3655.42	0.0011697
3665.06	0.0010777
3674.71	0.0011426
3684.35	0.001193
3694	0.0010375
3703.64	0.0012522
3713.29	0.0008425
3722.93	0.0006302
3732.58	0.0011747
3742.22	0.0014295
3751.86	0.000632
3761.51	0.0009116
3771.15	0.0014999
3780.8	0.000535747
3790.44	0.0015148
3800.09	0.0009709
3809.73	0.0011721
3819.38	0.0010107
3829.02	0.0012381
3838.67	0.001588
3848.31	0.0011227
3857.96	0.0009299
3867.6	0.0004737
3877.25	0.0008346
3886.89	0.00055628
3896.54	0.0009516
3906.18	0.0006389
3915.83	0.0013983
3925.47	0.001538
3935.12	0.0013724
3944.76	0.0015069
3954.41	0.0008357
3964.05	0.0009563
3973.69	0.0008923
3983.34	0.0013544
3992.98	0.00059087
