Infrared Spectrum: 2-Methoxybiphenyl
Formula: C 13 H 12 O
CAS: 86-26-0
State: gas
Instrument: HP-GC/MS/IRD
Origin: NIST Mass Spectrometry Data Center
1/CM	ABSORBANCE
550	0.001518
562	0.0017549
574	0.0016261
586	0.0012029
598	0.0006049
610	0.0018354
622	0.0012949
634	0.000184
646	0.0003427
658	0.0007475
670	0.0017043
682	0.0036524
694	0.0119025
706	0.0090873
718	0.0063526
730	0.0120451
742	0.0157757
754	0.0155181
766	0.0097497
778	0.0035765
790	0.0019343
802	0.0022862
814	0.0011201
826	0.0005842
838	0.0007153
850	0.0004899
862	0.0002346
874	0.0001058
886	0.0001311
898	0.0002507
910	0.0005405
922	0.0005037
934	0.0005773
946	0.0004255
958	0.0005773
970	0.0008809
982	0.0016836
994	0.0034132
1006	0.0076084
1018	0.0094001
1030	0.0094576
1042	0.0087998
1054	0.0081006
1066	0.0047679
1078	0.0022517
1090	0.0014789
1102	0.0025231
1114	0.0057546
1126	0.0051198
1138	0.0017871
1150	0.0015893
1162	0.0024955
1174	0.0034362
1186	0.0040434
1198	0.0034454
1210	0.0059662
1222	0.0136206
1234	0.0211899
1246	0.0224871
1258	0.022195
1270	0.0143727
1282	0.0079787
1294	0.0050807
1306	0.0027991
1318	0.00161
1330	0.0011799
1342	0.0008763
1354	0.0007498
1366	0.0007636
1378	0.0008671
1390	0.0010511
1402	0.001955
1414	0.0037559
1426	0.007958
1438	0.0089079
1450	0.0066884
1462	0.009499
1474	0.0181217
1486	0.0204447
1498	0.0102718
1510	0.0063342
1522	0.0027577
1534	0.0018469
1546	0.0013892
1558	0.0018607
1570	0.00368
1582	0.0054809
1594	0.0065803
1606	0.0053314
1618	0.002369
1630	0.0008625
1642	0.00046
1654	0.00046
1666	0.0006785
1678	0.0007797
1690	0.0005957
1702	0.0004784
1714	0.0004025
1726	0.0003864
1738	0.0004554
1750	0.0004347
1762	0.0004163
1774	0.0006118
1786	0.0007958
1798	0.0010051
1810	0.0007222
1822	0.0005497
1834	0.0003772
1846	0.0003381
1858	0.0005727
1870	0.0008395
1882	0.0010074
1894	0.0010603
1906	0.0006923
1918	0.0006417
1930	0.0011017
1942	0.0010143
1954	0.0007613
1966	0.0003634
1978	0.0002507
1990	0.0002461
2002	0.0002622
2014	0.0003358
2026	0.0005083
2038	0.0006164
2050	0.0006371
2062	0.0006417
2074	0.0004393
2086	0.0002921
2098	0.0001587
2110	6.9e-05
2122	5.06e-05
2134	8.74e-05
2146	6.44e-05
2158	7.82e-05
2170	7.59e-05
2182	5.98e-05
2194	9.89e-05
2206	0.0001081
2218	0.0001104
2230	0.0001127
2242	0.000115
2254	0.0001587
2266	0.0002116
2278	0.0002231
2290	0.0001541
2302	0.0001656
2314	0.0002254
2326	0.000138
2338	0.0001012
2350	5.98e-05
2362	5.06e-05
2374	8.74e-05
2386	0.0001357
2398	0.0001403
2410	0.0001403
2422	0.0001242
2434	0.0001265
2446	0.0001357
2458	0.000161
2470	0.0001311
2482	0.0002093
2494	0.0002208
2506	0.0003128
2518	0.0003082
2530	0.0002829
2542	0.0002875
2554	0.0002438
2566	0.0001978
2578	0.0001541
2590	0.0001219
2602	0.0002024
2614	0.0001748
2626	0.000138
2638	0.0001564
2650	7.59e-05
2662	4.83e-05
2674	6.9e-05
2686	7.82e-05
2698	5.75e-05
2710	0.0001012
2722	0.000115
2734	0.0001173
2746	0.0001656
2758	0.0001817
2770	0.0002231
2782	0.000299
2794	0.0004945
2806	0.0008073
2818	0.0014053
2830	0.0031418
2842	0.0052555
2854	0.0036708
2866	0.002438
2878	0.0024311
2890	0.0027853
2902	0.0034063
2914	0.0042757
2926	0.0050508
2938	0.0075992
2950	0.0083743
2962	0.0059156
2974	0.0038617
2986	0.0037076
2998	0.0053774
3010	0.0062445
3022	0.007038
3034	0.0093104
3046	0.0083697
3058	0.0114471
3070	0.0163806
3082	0.0116127
3094	0.006486
3106	0.0035581
3118	0.0019458
3130	0.0010166
3142	0.0008257
3154	0.0007038
3166	0.0003657
3178	0.0002668
3190	0.0002599
3202	0.0001564
3214	0.0001288
3226	0.000115
3238	2.07e-05
3250	4.83e-05
3262	3.45e-05
3274	5.75e-05
3286	7.36e-05
3298	0.0001311
3310	0.0001403
3322	9.43e-05
3334	0.0001334
3346	4.6e-05
3358	9.43e-05
3370	0.0001702
3382	9.43e-05
3394	5.52e-05
3406	9.43e-05
3418	0.0001196
3430	5.06e-05
3442	0.0001403
3454	9.43e-05
3466	0.0001541
3478	0.0001081
3490	0.0001012
3502	0.0001311
3514	0.0001518
3526	0.0001495
3538	0.0001771
3550	0.0001357
3562	0.0001219
3574	0.000161
3586	0.0001403
3598	9.89e-05
3610	0.0001794
3622	0.0002139
3634	0.0002553
3646	0.000184
3658	0.0002346
3670	0.0002024
3682	0.0002139
3694	0.0001955
3706	0.0002346
3718	0.000161
3730	0.0002369
3742	0.0001334
3754	0.0001886
3766	0.0001173
3778	0.0002967
3790	0.0002507
3802	0.0002622
3814	0.0002024
3826	0.0002254
3838	0.0002806
