Infrared Spectrum: PYRIDINE, 2[Alpha-(2-DIMETHYL AMINOETHYL)BENZYL]
Formula: C16 H20 N2
CAS: 86-21-5
Boiling point: 181 C AT 13 mmHg
Class: COBLENTZ III
Instrument: PERKIN-ELMER 21 (GRATING)
Instrument parameters: FILTER AT ABOUT 10 MICRONS
Sampling: TRANSMISSION
Resolution: 2
1/CM	TRANSMITTANCE
4000	0.9068
3991	0.9059
3982	0.9051
3973	0.9052
3964	0.9053
3955	0.9054
3946	0.9065
3937	0.9081
3928	0.9096
3919	0.9109
3910	0.9114
3901	0.912
3892	0.9125
3883	0.9131
3874	0.9135
3865	0.9141
3856	0.9146
3847	0.9151
3838	0.9156
3829	0.9166
3820	0.9178
3811	0.919
3802	0.9203
3793	0.9215
3784	0.9228
3775	0.924
3766	0.9251
3757	0.926
3748	0.927
3739	0.928
3730	0.929
3721	0.93
3712	0.9305
3703	0.9311
3694	0.9317
3685	0.9321
3676	0.9318
3667	0.9308
3658	0.9297
3649	0.928
3640	0.9263
3631	0.9247
3622	0.9239
3613	0.9236
3604	0.9232
3595	0.9233
3586	0.9236
3577	0.9237
3568	0.9239
3559	0.9241
3550	0.9243
3541	0.9246
3532	0.9246
3523	0.9247
3514	0.9247
3505	0.9248
3496	0.9248
3487	0.9248
3478	0.9249
3469	0.9249
3460	0.9245
3451	0.9242
3442	0.9237
3433	0.9233
3424	0.9228
3415	0.9225
3406	0.9221
3397	0.9217
3388	0.9212
3379	0.9207
3370	0.9202
3361	0.9197
3352	0.9192
3343	0.9187
3334	0.9182
3325	0.9177
3316	0.9171
3307	0.9167
3298	0.9162
3289	0.9157
3280	0.9153
3271	0.9148
3262	0.9144
3253	0.9139
3244	0.9134
3235	0.913
3226	0.9125
3217	0.9121
3208	0.9118
3199	0.9114
3190	0.9108
3181	0.9093
3172	0.9078
3163	0.9061
3154	0.9035
3145	0.8996
3136	0.8931
3127	0.8834
3118	0.8705
3109	0.8521
3100	0.8061
3091	0.7386
3082	0.675
3073	0.673
3064	0.6725
3055	0.6715
3046	0.6675
3037	0.6548
3028	0.6501
3019	0.6487
3010	0.6489
3001	0.6488
2992	0.6265
2983	0.581
2974	0.5353
2965	0.4893
2956	0.4429
2947	0.3982
2938	0.3872
2929	0.4038
2920	0.436
2911	0.4685
2902	0.501
2893	0.5338
2884	0.5531
2875	0.5575
2866	0.5609
2857	0.5668
2848	0.5759
2839	0.5845
2830	0.5868
2821	0.5671
2812	0.5431
2803	0.5324
2794	0.5252
2785	0.4704
2776	0.4099
2767	0.3841
2758	0.3866
2749	0.4539
2740	0.5508
2731	0.5859
2722	0.638
2713	0.7021
2704	0.7287
2695	0.7536
2686	0.7798
2677	0.8021
2668	0.8168
2659	0.8337
2650	0.8502
2641	0.8621
2632	0.8718
2623	0.8768
2614	0.8799
2605	0.8838
2596	0.8891
2587	0.8961
2578	0.9024
2569	0.9068
2560	0.9091
2551	0.9096
2542	0.9099
2533	0.91
2524	0.9099
2515	0.9098
2506	0.9097
2497	0.9097
2488	0.9103
2479	0.9121
2470	0.9148
2461	0.9181
2452	0.9207
2443	0.9228
2434	0.9247
2425	0.9251
2416	0.9256
2407	0.9277
2398	0.9302
2389	0.9325
2380	0.935
2371	0.9373
2362	0.9396
2353	0.9418
2344	0.9441
2335	0.9454
2326	0.9462
2317	0.9477
2308	0.9521
2299	0.9568
2290	0.9599
2281	0.9604
2272	0.9578
2263	0.9549
2254	0.952
2245	0.9503
2236	0.9502
2227	0.9505
2218	0.9518
2209	0.9531
2200	0.9544
2191	0.9562
2182	0.9578
2173	0.9596
2164	0.9614
2155	0.9631
2146	0.9648
2137	0.9668
2128	0.9689
2119	0.9697
2110	0.9691
2101	0.9603
2092	0.9507
2083	0.9454
2074	0.942
2065	0.9402
2056	0.9387
2047	0.9377
2038	0.9374
2029	0.9371
2020	0.937
2011	0.9368
2002	0.9368
1993	0.9364
1984	0.9323
1975	0.9223
1966	0.9171
1957	0.9106
1948	0.8878
1939	0.8852
1930	0.9075
1921	0.9234
1912	0.9259
1903	0.9241
1894	0.9209
1885	0.9154
1876	0.909
1867	0.9053
1858	0.9071
1849	0.9132
1840	0.913
1831	0.9174
1822	0.919
1813	0.9139
1804	0.9066
1795	0.91
1786	0.9177
1777	0.9174
1768	0.9154
1759	0.9124
1750	0.9108
1741	0.9104
1732	0.9106
1723	0.9109
1714	0.9107
1705	0.9101
1696	0.9085
1687	0.905
1678	0.8981
1669	0.8927
1660	0.8905
1651	0.8883
1642	0.8859
1633	0.8827
1624	0.8793
1615	0.8777
1606	0.8816
1597	0.8915
1588	0.8944
1579	0.8988
1570	0.9023
1561	0.904
1552	0.9053
1543	0.9059
1534	0.9068
1525	0.9084
1516	0.9115
1507	0.9193
1498	0.9228
1489	0.9208
1480	0.9203
1471	0.9225
1462	0.9236
1453	0.9259
1444	0.9356
1435	0.9344
1426	0.9378
1417	0.9404
1408	0.9363
1399	0.9096
1390	0.845
1381	0.7215
1372	0.7218
1363	0.7761
1354	0.7689
1345	0.7611
1336	0.7891
1327	0.8053
1318	0.8054
1309	0.7618
1300	0.7443
1291	0.7128
1282	0.6742
1273	0.6885
1264	0.6078
1255	0.6925
1246	0.7372
1237	0.7564
1228	0.6984
1219	0.6622
1210	0.7511
1201	0.724
1192	0.7269
1183	0.7465
1174	0.7061
1165	0.6771
1156	0.6636
1147	0.4748
1138	0.5999
1129	0.7581
1120	0.7853
1111	0.7806
1102	0.7326
1093	0.6528
1084	0.7415
1075	0.6718
1066	0.6393
1057	0.6515
1048	0.5027
1039	0.4697
1030	0.4391
1021	0.606
1012	0.734
1003	0.7864
994	0.6487
985	0.7937
976	0.8244
967	0.8358
958	0.8202
949	0.7767
940	0.7748
931	0.8364
922	0.8294
913	0.8194
904	0.8452
895	0.8406
886	0.8215
877	0.8095
868	0.8056
859	0.822
850	0.8463
841	0.8039
832	0.7631
823	0.7468
814	0.7587
805	0.7201
796	0.7549
787	0.631
778	0.4651
769	0.6384
760	0.6069
751	0.2385
742	0.2266
733	0.6643
724	0.7589
715	0.7576
706	0.5988
697	0.0759
688	0.6203
679	0.7207
670	0.7187
