Infrared Spectrum: N-Ethylcarbazole
Formula: C 14 H 13 N
CAS: 86-28-2
State: gas
Origin: EPA-IR VAPOR PHASE LIBRARY
1/CM	ABSORBANCE
501.5	0.0003004
513.074	0.0010256
524.648	0.003384
536.222	0.001254
547.796	0.002164
559.37	0.003664
570.944	0.002594
582.518	0.002824
594.092	0.001174
605.666	0.0007559
617.24	0.003724
628.814	0.001614
640.388	0.000845
651.962	0.0008853
663.536	0.0010189
675.11	0.0007688
686.684	0.00085
698.258	0.002204
709.832	0.021244
721.406	0.057654
732.98	0.029784
744.554	0.061284
756.128	0.028094
767.702	0.005214
779.276	0.006554
790.85	0.003854
802.423	0.001254
813.997	0.0006712
825.571	0.0006969
837.145	0.0010918
848.719	0.0007136
860.293	0.0008998
871.867	0.001634
883.441	0.002764
895.015	0.001614
906.589	0.0008817
918.163	0.001694
929.737	0.001814
941.311	0.001304
952.885	0.0008414
964.459	0.0009403
976.033	0.0011017
987.607	0.002714
999.181	0.008254
1010.76	0.007464
1022.33	0.004884
1033.9	0.002434
1045.48	0.001844
1057.05	0.004264
1068.63	0.003414
1080.2	0.003924
1091.77	0.004084
1103.35	0.002694
1114.92	0.011554
1126.49	0.015924
1138.07	0.009584
1149.64	0.017784
1161.22	0.013944
1172.79	0.004314
1184.36	0.004514
1195.94	0.004854
1207.51	0.009524
1219.09	0.036924
1230.66	0.058764
1242.23	0.010874
1253.81	0.003874
1265.38	0.003324
1276.96	0.003414
1288.53	0.004974
1300.1	0.009694
1311.68	0.029924
1323.25	0.057304
1334.83	0.048484
1346.4	0.039364
1357.97	0.018954
1369.55	0.012834
1381.12	0.017464
1392.7	0.011174
1404.27	0.007134
1415.84	0.005324
1427.42	0.005804
1438.99	0.016414
1450.57	0.054914
1462.14	0.059274
1473.71	0.043244
1485.29	0.062524
1496.86	0.017804
1508.44	0.004884
1520.01	0.003444
1531.58	0.003174
1543.16	0.003254
1554.73	0.004364
1566.31	0.006224
1577.88	0.010104
1589.45	0.016214
1601.03	0.022134
1612.6	0.011094
1624.18	0.011144
1635.75	0.007144
1647.32	0.003674
1658.9	0.002644
1670.47	0.002594
1682.05	0.001974
1693.62	0.001164
1705.19	0.0008527
1716.77	0.0009553
1728.34	0.001174
1739.92	0.001294
1751.49	0.002604
1763.06	0.002424
1774.64	0.0011118
1786.21	0.001744
1797.79	0.001794
1809.36	0.0006324
1820.93	0.0005507
1832.51	0.001294
1844.08	0.002364
1855.66	0.001274
1867.23	0.002304
1878.8	0.003954
1890.38	0.001774
1901.95	0.002034
1913.53	0.004444
1925.1	0.001654
1936.67	0.0004027
1948.25	0.0003025
1959.82	0.0002387
1971.4	0.00019524
1982.97	0.0002378
1994.54	0.0002926
2006.12	0.0002831
2017.69	0.0002677
2029.27	0.00020962
2040.84	0.0002817
2052.41	0.0003414
2063.99	0.0002883
2075.56	0.00020533
2087.14	0.0002498
2098.71	0.0002996
2110.28	0.0003247
2121.86	0.0003098
2133.43	0.0003685
2145.01	0.0004567
2156.58	0.0005473
2168.15	0.0005682
2179.73	0.0004796
2191.3	0.000405
2202.88	0.0004303
2214.45	0.0003551
2226.02	0.000364
2237.6	0.0005233
2249.17	0.000575
2260.74	0.0004726
2272.32	0.0004186
2283.89	0.0003917
2295.47	0.0004567
2307.04	0.0006547
2318.61	0.0007606
2330.19	0.0005157
2341.76	0.0005509
2353.34	0.0004433
2364.91	0.0003946
2376.48	0.000392
2388.06	0.0004437
2399.63	0.0004614
2411.21	0.0004995
2422.78	0.0003959
2434.35	0.0003897
2445.93	0.0004963
2457.5	0.0006956
2469.08	0.000869
2480.65	0.0009453
2492.22	0.0009322
2503.8	0.001058
2515.37	0.0009961
2526.95	0.0007463
2538.52	0.0006856
2550.09	0.0006074
2561.67	0.0005539
2573.24	0.0006403
2584.82	0.0008008
2596.39	0.001194
2607.96	0.001514
2619.54	0.001274
2631.11	0.001224
2642.69	0.001234
2654.26	0.001114
2665.83	0.0009817
2677.41	0.000969
2688.98	0.001234
2700.56	0.001634
2712.13	0.001654
2723.7	0.001204
2735.28	0.0009363
2746.85	0.0009414
2758.43	0.0009967
2770	0.0010342
2781.57	0.001054
2793.15	0.001334
2804.72	0.002054
2816.3	0.002244
2827.87	0.001934
2839.44	0.001834
2851.02	0.002244
2862.59	0.003434
2874.17	0.007214
2885.74	0.011174
2897.31	0.009694
2908.89	0.008584
2920.46	0.008624
2932.04	0.011574
2943.61	0.016074
2955.18	0.015994
2966.76	0.014194
2978.33	0.024184
2989.91	0.021834
3001.48	0.007634
3013.05	0.007154
3024.63	0.011334
3036.2	0.013664
3047.78	0.020654
3059.35	0.031134
3070.92	0.039204
3082.5	0.024994
3094.07	0.011844
3105.65	0.003914
3117.22	0.002164
3128.79	0.001514
3140.37	0.001334
3151.94	0.001354
3163.52	0.0010794
3175.09	0.0007622
3186.66	0.0006498
3198.24	0.0006355
3209.81	0.0006659
3221.39	0.0007427
3232.96	0.000544
3244.53	0.0003819
3256.11	0.0002503
3267.68	0.00017426
3279.26	9.04e-05
3290.83	6.94e-05
3302.4	4.07e-05
3313.98	8.2e-05
3325.55	9.42e-05
3337.13	9.9e-05
3348.7	8.88e-05
3360.27	7.99e-05
3371.85	9.83e-05
3383.42	1.1e-05
3395	3.51e-05
3406.57	3.76e-05
3418.14	5.84e-05
3429.72	5.81e-05
3441.29	2.1e-05
3452.86	5.54e-05
3464.44	3.67e-05
3476.01	8.36e-05
3487.59	0.000113085
3499.16	7.88e-05
3510.73	9.06e-05
3522.31	1e-05
3533.88	7.06e-05
3545.46	7.34e-05
3557.03	0
3568.6	9e-06
3580.18	6.6e-05
3591.75	4.79e-05
3603.33	7.04e-05
3614.9	4.74e-05
3626.47	6.73e-05
3638.05	0.00010819
3649.62	0.000121753
3661.2	0.00016981
3672.77	0.00017162
3684.34	0.000116299
3695.92	0.00013752
3707.49	6.11e-05
3719.07	5.24e-05
3730.64	0.000123853
3742.21	5.04e-05
3753.79	0.00013931
3765.36	0.00015531
3776.94	0.00019068
3788.51	0.0002545
3800.08	0.0002287
3811.66	0.0002526
3823.23	0.000268
3834.81	0.0003015
3846.38	0.0002316
3857.95	0.00020495
3869.53	0.000113224
3881.1	0.000118828
3892.68	8.41e-05
3904.25	0.00014811
3915.82	0.00015263
3927.4	0.0001545
3938.97	0.00019263
3950.55	0.00018811
3962.12	0.0002253
3973.69	0.00020265
3985.27	0.00015243
3996.84	0.0002173
