Infrared Spectrum: Ethotoin
Formula: C 11 H 12 N 2 O 2
CAS: 86-35-1
State: gas
Instrument: HP-GC/MS/IRD
Origin: NIST Mass Spectrometry Data Center
1/CM	ABSORBANCE
550	0.000597
562	0.000384
574	0.000144
586	0.000252
598	0.000525
610	0.000282
622	0.00027
634	0.000432
646	0.000279
658	0.000336
670	0.000552
682	0.001002
694	0.001728
706	0.001647
718	0.001173
730	0.001044
742	0.001176
754	0.001269
766	0.000966
778	0.000618
790	0.000423
802	0.0006
814	0.00117
826	0.000774
838	0.000279
850	0.000186
862	0.000108
874	5.7e-05
886	6.6e-05
898	3e-05
910	9e-06
922	7.8e-05
934	0.00015
946	0.000519
958	0.000306
970	0.000144
982	0.00024
994	0.000558
1006	0.000489
1018	0.00024
1030	0.000354
1042	0.000264
1054	0.000339
1066	0.000561
1078	0.000921
1090	0.001059
1102	0.001026
1114	0.001287
1126	0.000696
1138	0.000324
1150	0.000354
1162	0.000762
1174	0.000891
1186	0.000702
1198	0.000975
1210	0.001416
1222	0.000777
1234	0.000444
1246	0.000642
1258	0.000747
1270	0.000969
1282	0.001236
1294	0.00123
1306	0.000984
1318	0.00093
1330	0.001572
1342	0.00291
1354	0.004371
1366	0.00276
1378	0.002811
1390	0.003483
1402	0.004314
1414	0.008256
1426	0.005022
1438	0.002385
1450	0.004062
1462	0.002607
1474	0.000978
1486	0.000606
1498	0.000765
1510	0.00039
1522	0.000306
1534	0.000243
1546	0.000144
1558	0.000213
1570	0.000318
1582	0.000261
1594	0.000408
1606	0.000312
1618	0.000189
1630	0.000165
1642	0.000183
1654	0.00027
1666	0.000369
1678	0.000546
1690	0.000897
1702	0.001482
1714	0.002637
1726	0.006081
1738	0.020379
1750	0.028026
1762	0.0087
1774	0.002952
1786	0.003366
1798	0.00786
1810	0.005514
1822	0.001443
1834	0.000546
1846	0.000327
1858	0.000288
1870	0.000261
1882	0.000234
1894	0.000192
1906	0.000132
1918	0.00015
1930	0.000177
1942	0.000189
1954	0.000159
1966	0.000141
1978	8.7e-05
1990	4.2e-05
2002	6e-05
2014	3.9e-05
2026	4.2e-05
2038	3.3e-05
2050	1.5e-05
2062	3e-05
2074	3e-06
2086	2.1e-05
2098	4.2e-05
2110	6.3e-05
2122	4.2e-05
2134	3e-05
2146	2.7e-05
2158	1.8e-05
2170	1.8e-05
2182	2.4e-05
2194	2.1e-05
2206	3.3e-05
2218	2.4e-05
2230	2.7e-05
2242	3e-06
2254	1.2e-05
2266	1.5e-05
2278	2.4e-05
2290	0
2302	2.4e-05
2314	4.5e-05
2326	6.3e-05
2338	5.1e-05
2350	3.6e-05
2362	4.8e-05
2374	1.8e-05
2386	2.4e-05
2398	2.7e-05
2410	6e-05
2422	5.7e-05
2434	4.2e-05
2446	6.3e-05
2458	3.3e-05
2470	2.4e-05
2482	6e-05
2494	2.7e-05
2506	0
2518	3.3e-05
2530	2.7e-05
2542	3.3e-05
2554	2.1e-05
2566	9e-06
2578	5.1e-05
2590	2.7e-05
2602	2.4e-05
2614	1.8e-05
2626	5.7e-05
2638	3.6e-05
2650	2.7e-05
2662	2.7e-05
2674	3.6e-05
2686	3e-05
2698	1.5e-05
2710	3e-05
2722	2.1e-05
2734	2.4e-05
2746	4.2e-05
2758	5.4e-05
2770	6.3e-05
2782	1.2e-05
2794	5.1e-05
2806	6.3e-05
2818	3.3e-05
2830	4.8e-05
2842	8.1e-05
2854	0.00012
2866	0.000162
2878	0.000255
2890	0.000414
2902	0.000492
2914	0.000567
2926	0.000444
2938	0.000687
2950	0.001101
2962	0.000804
2974	0.000684
2986	0.001395
2998	0.000774
3010	0.000393
3022	0.000351
3034	0.000651
3046	0.000726
3058	0.000528
3070	0.00093
3082	0.000795
3094	0.000453
3106	0.000339
3118	0.000198
3130	0.000132
3142	9e-05
3154	6.6e-05
3166	0.000129
3178	6.6e-05
3190	8.7e-05
3202	4.8e-05
3214	6.6e-05
3226	3.9e-05
3238	4.2e-05
3250	1.5e-05
3262	4.2e-05
3274	4.8e-05
3286	3.3e-05
3298	1.8e-05
3310	4.5e-05
3322	4.5e-05
3334	2.4e-05
3346	3.3e-05
3358	6e-05
3370	5.4e-05
3382	4.8e-05
3394	6.9e-05
3406	8.7e-05
3418	0.000117
3430	9.9e-05
3442	0.000138
3454	0.000255
3466	0.000654
3478	0.001389
3490	0.001221
3502	0.000522
3514	0.000273
3526	0.000273
3538	0.000273
3550	0.000144
3562	0.000123
3574	0.000117
3586	0.000102
3598	0.000129
3610	9e-05
3622	7.8e-05
3634	8.4e-05
3646	8.1e-05
3658	0.000129
3670	9.3e-05
3682	8.1e-05
3694	6.3e-05
3706	3e-05
3718	3.6e-05
3730	3.6e-05
3742	7.2e-05
3754	8.1e-05
3766	7.2e-05
3778	8.7e-05
3790	0.000129
3802	7.5e-05
3814	9.9e-05
3826	0.00012
3838	6e-05
