Infrared Spectrum: Diphenylamine, N-nitroso-
Formula: C12 H10 N2 O
CAS: 86-30-6
State: SOLID (1.2 mg / 300 mg KBr DISC)
Melting point: 65 C
Boiling point: 164 C
Class: COBLENTZ II
Instrument: PERKIN-ELMER 180 (GRATING)
Instrument parameters: GRATINGS: 2000, 1000, 500, 250 CM^-^1; FILTER CHANGE: 2970, 2000, 1485, 1000, 743, 500, 372, 250, 186 CM^-^1.
Sampling: TRANSMISSION
Resolution: 2
Origin: K. K. DEB-NCI FREDERICK CANCER RESEARCH CENTER
1/CM	TRANSMITTANCE
384	0.9077
393	0.9084
402	0.8817
411	0.8287
420	0.9158
429	0.9208
438	0.9148
447	0.8844
456	0.8453
465	0.9143
474	0.9217
483	0.9231
492	0.9208
501	0.9083
510	0.8077
519	0.9014
528	0.8708
537	0.7901
546	0.9155
555	0.9125
564	0.8914
573	0.6656
582	0.88
591	0.9108
600	0.9089
609	0.9028
618	0.8811
627	0.8936
636	0.8966
645	0.8865
654	0.8681
663	0.8439
672	0.8263
681	0.6714
690	0.2547
699	0.3642
708	0.8738
717	0.9001
726	0.8842
735	0.8211
744	0.4955
753	0.4172
762	0.1492
771	0.6916
780	0.7784
789	0.889
798	0.9027
807	0.9078
816	0.9042
825	0.9065
834	0.8906
843	0.867
852	0.9085
861	0.9094
870	0.9068
879	0.9032
888	0.8985
897	0.8933
906	0.8704
915	0.8356
924	0.877
933	0.8899
942	0.8847
951	0.8699
960	0.845
969	0.7762
978	0.5929
987	0.7867
996	0.7736
1005	0.7636
1014	0.8176
1023	0.7416
1032	0.7313
1041	0.7352
1050	0.6378
1059	0.4823
1068	0.2277
1077	0.4678
1086	0.3451
1095	0.1683
1104	0.4716
1113	0.6839
1122	0.8285
1131	0.8516
1140	0.8352
1149	0.731
1158	0.4732
1167	0.1448
1176	0.5393
1185	0.5509
1194	0.2347
1203	0.6926
1212	0.8164
1221	0.8489
1230	0.8603
1239	0.861
1248	0.846
1257	0.8386
1266	0.8404
1275	0.8044
1284	0.752
1293	0.736
1302	0.6412
1311	0.7283
1320	0.6221
1329	0.7074
1338	0.8548
1347	0.865
1356	0.8584
1365	0.8493
1374	0.8412
1383	0.831
1392	0.822
1401	0.8045
1410	0.7914
1419	0.7453
1428	0.6292
1437	0.2603
1446	0.2918
1455	0.6663
1464	0.4699
1473	0.1925
1482	0.5738
1491	0.1433
1500	0.6376
1509	0.7938
1518	0.8534
1527	0.8514
1536	0.8709
1545	0.8851
1554	0.8861
1563	0.8759
1572	0.8524
1581	0.8044
1590	0.6195
1599	0.7739
1608	0.8301
1617	0.8605
1626	0.8719
1635	0.8712
1644	0.8739
1653	0.8758
1662	0.8715
1671	0.8675
1680	0.865
1689	0.8656
1698	0.8677
1707	0.8708
1716	0.8722
1725	0.8722
1734	0.8697
1743	0.8586
1752	0.8465
1761	0.8633
1770	0.8753
1779	0.8804
1788	0.8811
1797	0.8608
1806	0.8397
1815	0.8743
1824	0.8703
1833	0.8731
1842	0.8738
1851	0.8719
1860	0.8673
1869	0.8561
1878	0.8224
1887	0.8328
1896	0.8524
1905	0.8504
1914	0.8615
1923	0.8646
1932	0.8612
1941	0.8597
1950	0.8409
1959	0.8212
1968	0.8519
1977	0.8448
1986	0.8503
1995	0.8626
2004	0.8603
2013	0.8595
2022	0.8588
2031	0.8582
2040	0.8577
2049	0.857
2058	0.8562
2067	0.8551
2076	0.854
2085	0.8529
2094	0.8517
2103	0.8505
2112	0.8494
2121	0.8481
2130	0.8472
2139	0.8462
2148	0.8453
2157	0.8443
2166	0.8436
2175	0.8431
2184	0.8426
2193	0.8417
2202	0.8407
2211	0.8396
2220	0.8388
2229	0.8381
2238	0.8374
2247	0.8367
2256	0.8364
2265	0.8363
2274	0.8363
2283	0.8357
2292	0.8349
2301	0.8336
2310	0.8323
2319	0.831
2328	0.8298
2337	0.8289
2346	0.8279
2355	0.827
2364	0.8278
2373	0.8276
2382	0.826
2391	0.8242
2400	0.8229
2409	0.8215
2418	0.8202
2427	0.8187
2436	0.8171
2445	0.8156
2454	0.814
2463	0.8124
2472	0.8103
2481	0.8081
2490	0.8059
2499	0.8038
2508	0.8041
2517	0.8043
2526	0.8036
2535	0.8025
2544	0.8013
2553	0.7999
2562	0.7986
2571	0.7978
2580	0.797
2589	0.7962
2598	0.7954
2607	0.7942
2616	0.7929
2625	0.7916
2634	0.7906
2643	0.7899
2652	0.7892
2661	0.7887
2670	0.7892
2679	0.7895
2688	0.7894
2697	0.7893
2706	0.7892
2715	0.7878
2724	0.7863
2733	0.7843
2742	0.7822
2751	0.7801
2760	0.7784
2769	0.777
2778	0.7756
2787	0.774
2796	0.7725
2805	0.7713
2814	0.7704
2823	0.7694
2832	0.7674
2841	0.7613
2850	0.7531
2859	0.744
2868	0.7294
2877	0.7429
2886	0.7474
2895	0.7363
2904	0.7342
2913	0.7344
2922	0.7309
2931	0.7314
2940	0.7374
2949	0.7371
2958	0.7355
2967	0.7323
2976	0.7316
2985	0.7308
2994	0.7256
3003	0.7155
3012	0.6994
3021	0.6972
3030	0.6864
3039	0.678
3048	0.6775
3057	0.6141
3066	0.6687
3075	0.6501
3084	0.7027
3093	0.698
3102	0.7008
3111	0.7174
3120	0.7271
3129	0.7277
3138	0.7277
3147	0.7273
3156	0.7267
3165	0.7255
3174	0.7235
3183	0.7242
3192	0.7274
3201	0.727
3210	0.726
3219	0.7248
3228	0.7235
3237	0.7222
3246	0.7209
3255	0.7195
3264	0.7182
3273	0.7167
3282	0.7154
3291	0.7137
3300	0.712
3309	0.7103
3318	0.7086
3327	0.7064
3336	0.7042
3345	0.7018
3354	0.6996
3363	0.6975
3372	0.6955
3381	0.6934
3390	0.6916
3399	0.6907
3408	0.6897
3417	0.6888
3426	0.688
3435	0.6871
3444	0.6863
3453	0.6856
3462	0.6851
3471	0.6845
3480	0.6839
3489	0.6839
3498	0.6839
3507	0.6839
3516	0.6843
3525	0.6854
3534	0.6865
3543	0.6877
3552	0.689
3561	0.6901
3570	0.691
3579	0.6916
3588	0.6922
3597	0.6928
3606	0.6933
3615	0.6933
3624	0.6934
3633	0.6934
3642	0.6928
3651	0.6921
3660	0.6915
3669	0.6908
3678	0.6904
3687	0.6899
3696	0.6896
3705	0.6892
3714	0.6897
3723	0.6917
3732	0.6913
3741	0.69
3750	0.6886
3759	0.6876
3768	0.6866
3777	0.6852
3786	0.6839
3795	0.6826
