Infrared Spectrum: Phensuximide
Formula: C 11 H 11 N O 2
CAS: 86-34-0
State: gas
Instrument: HP-GC/MS/IRD
Origin: NIST Mass Spectrometry Data Center
1/CM	ABSORBANCE
550	4.7e-06
562	5.17e-05
574	0.0001457
586	0.0002726
598	0.0003149
610	0.0005734
622	0.0007285
634	0.0009024
646	0.0013865
658	0.0013724
670	0.0014053
682	0.0025239
694	0.003995
706	0.003008
718	0.0018471
730	0.0014382
742	0.0014053
754	0.0009917
766	0.0006909
778	0.0006157
790	0.0009212
802	0.0013348
814	0.0007191
826	0.0004653
838	0.000282
850	0.0002209
862	0.0001645
874	0.0001927
886	0.000235
898	0.0002585
910	0.0002632
922	0.0004653
934	0.0012126
946	0.0027072
958	0.0019364
970	0.0006862
982	0.0005358
994	0.0006157
1006	0.000752
1018	0.0006909
1030	0.0011703
1042	0.0016215
1054	0.0022043
1066	0.001551
1078	0.001457
1090	0.0021855
1102	0.0037976
1114	0.0044133
1126	0.0025709
1138	0.0024205
1150	0.0031302
1162	0.0023688
1174	0.0012361
1186	0.0008507
1198	0.0005217
1210	0.0005452
1222	0.0007332
1234	0.0007802
1246	0.0011797
1258	0.0027918
1270	0.0068244
1282	0.0076469
1294	0.0034639
1306	0.0018753
1318	0.001598
1330	0.0018001
1342	0.0022936
1354	0.0032054
1366	0.0062087
1378	0.0098277
1390	0.0068526
1402	0.0032853
1414	0.0036096
1426	0.0073179
1438	0.0076234
1450	0.003337
1462	0.001551
1474	0.0010434
1486	0.0012079
1498	0.0020351
1510	0.0011703
1522	0.0007614
1534	0.0006627
1546	0.0005875
1558	0.0005311
1570	0.0005264
1582	0.0005781
1594	0.000799
1606	0.0008742
1618	0.0005452
1630	0.0004982
1642	0.0006439
1654	0.0008413
1666	0.0011186
1678	0.0016967
1690	0.003149
1702	0.0060442
1714	0.0122106
1726	0.0336849
1738	0.045402
1750	0.0185603
1762	0.0064296
1774	0.0033229
1786	0.0037271
1798	0.0040655
1810	0.0015322
1822	0.0007755
1834	0.0005405
1846	0.0005499
1858	0.0005405
1870	0.0004794
1882	0.0004324
1894	0.000329
1906	0.0003243
1918	0.0003337
1930	0.0003384
1942	0.0003431
1954	0.0003619
1966	0.0003055
1978	0.0002162
1990	0.0001927
2002	0.0001551
2014	0.0001457
2026	0.0001551
2038	0.0001551
2050	0.0001598
2062	0.0001504
2074	0.0001645
2086	0.0001739
2098	0.0001739
2110	0.0001551
2122	0.0001457
2134	0.0001316
2146	0.0001457
2158	0.000141
2170	0.0001316
2182	0.0001128
2194	0.0001175
2206	0.0001034
2218	0.0001222
2230	0.0001034
2242	9.4e-05
2254	7.99e-05
2266	8.93e-05
2278	9.4e-05
2290	0.0001034
2302	0.0001363
2314	0.0001504
2326	0.000188
2338	0.0001692
2350	0.0001504
2362	0.0001222
2374	0.0001551
2386	0.0001363
2398	0.0001081
2410	0.0001269
2422	0.0001316
2434	0.0001081
2446	9.87e-05
2458	8.93e-05
2470	0.0001034
2482	9.87e-05
2494	9.87e-05
2506	9.4e-05
2518	8.46e-05
2530	0.0001034
2542	0.0001128
2554	8.93e-05
2566	0.0001034
2578	9.4e-05
2590	9.87e-05
2602	5.17e-05
2614	6.58e-05
2626	8.46e-05
2638	0.0001081
2650	0.0001175
2662	9.4e-05
2674	7.52e-05
2686	4.23e-05
2698	7.52e-05
2710	7.52e-05
2722	4.7e-05
2734	6.11e-05
2746	6.58e-05
2758	4.23e-05
2770	2.82e-05
2782	3.76e-05
2794	6.58e-05
2806	7.99e-05
2818	8.93e-05
2830	0.0001081
2842	0.0001551
2854	0.0001974
2866	0.0002491
2878	0.0002914
2890	0.0004371
2902	0.0006533
2914	0.0007661
2926	0.0008366
2938	0.0011891
2950	0.0017578
2962	0.0015933
2974	0.001081
2986	0.0008178
2998	0.0006251
3010	0.0006016
3022	0.0009212
3034	0.0016591
3046	0.0015275
3058	0.0011656
3070	0.0020116
3082	0.001645
3094	0.0010246
3106	0.0006815
3118	0.0003666
3130	0.0001551
3142	0.0001034
3154	0.0001081
3166	7.99e-05
3178	6.58e-05
3190	6.11e-05
3202	4.7e-05
3214	1.41e-05
3226	1.41e-05
3238	2.82e-05
3250	5.17e-05
3262	9.4e-06
3274	3.29e-05
3286	3.76e-05
3298	4.23e-05
3310	3.76e-05
3322	9.4e-06
3334	0
3346	0
3358	1.88e-05
3370	3.29e-05
3382	5.17e-05
3394	4.23e-05
3406	3.29e-05
3418	7.05e-05
3430	8.46e-05
3442	8.46e-05
3454	0.0001222
3466	0.0001974
3478	0.0002256
3490	0.0002632
3502	0.0003807
3514	0.0004418
3526	0.0002444
3538	0.0001128
3550	7.52e-05
3562	4.7e-05
3574	7.05e-05
3586	7.05e-05
3598	5.17e-05
3610	2.82e-05
3622	4.23e-05
3634	3.29e-05
3646	9.4e-05
3658	5.64e-05
3670	3.29e-05
3682	6.58e-05
3694	8.46e-05
3706	7.52e-05
3718	9.4e-06
3730	2.82e-05
3742	4.7e-05
3754	9.4e-06
3766	3.29e-05
3778	7.05e-05
3790	4.23e-05
3802	3.76e-05
3814	2.82e-05
3826	4.23e-05
3838	7.99e-05
