Infrared Spectrum: AMODIAQUINE
Formula: C20 H22 Cl N3 O
CAS: 86-42-0
State: SOLID (KBr DISC)
Melting point: 208 C
Class: COBLENTZ III
Instrument: PERKIN-ELMER 21 (GRATING)
Instrument parameters: FILTER AT ABOUT 10 MICRONS
Sampling: TRANSMISSION
Resolution: 2
1/CM	TRANSMITTANCE
4000	0.8978
3991	0.8992
3982	0.9007
3973	0.9021
3964	0.9036
3955	0.9049
3946	0.9056
3937	0.9065
3928	0.9071
3919	0.908
3910	0.9087
3901	0.9091
3892	0.9093
3883	0.9096
3874	0.9099
3865	0.9101
3856	0.9104
3847	0.9107
3838	0.9109
3829	0.9112
3820	0.9115
3811	0.9117
3802	0.912
3793	0.9123
3784	0.9125
3775	0.9128
3766	0.913
3757	0.9128
3748	0.9128
3739	0.9127
3730	0.9125
3721	0.9125
3712	0.912
3703	0.9109
3694	0.9097
3685	0.9086
3676	0.9074
3667	0.9062
3658	0.905
3649	0.9037
3640	0.9015
3631	0.8994
3622	0.8971
3613	0.895
3604	0.8928
3595	0.8906
3586	0.8883
3577	0.8854
3568	0.8825
3559	0.8796
3550	0.8767
3541	0.8738
3532	0.8712
3523	0.8687
3514	0.8662
3505	0.8637
3496	0.8612
3487	0.8575
3478	0.8542
3469	0.8507
3460	0.8471
3451	0.8434
3442	0.8394
3433	0.8354
3424	0.8314
3415	0.8253
3406	0.8161
3397	0.8068
3388	0.7983
3379	0.7896
3370	0.78
3361	0.7703
3352	0.7578
3343	0.7421
3334	0.7311
3325	0.7114
3316	0.6851
3307	0.6589
3298	0.6324
3289	0.6058
3280	0.5791
3271	0.5551
3262	0.5544
3253	0.5647
3244	0.5762
3235	0.5881
3226	0.5999
3217	0.6117
3208	0.6236
3199	0.635
3190	0.6425
3181	0.6492
3172	0.6553
3163	0.6575
3154	0.6581
3145	0.6582
3136	0.6578
3127	0.6545
3118	0.6478
3109	0.6384
3100	0.6264
3091	0.6179
3082	0.6166
3073	0.6185
3064	0.6193
3055	0.6197
3046	0.6184
3037	0.6152
3028	0.6097
3019	0.5973
3010	0.5355
3001	0.4851
2992	0.4443
2983	0.478
2974	0.5455
2965	0.5562
2956	0.559
2947	0.5691
2938	0.5821
2929	0.5993
2920	0.6014
2911	0.6015
2902	0.601
2893	0.5989
2884	0.5936
2875	0.5702
2866	0.5436
2857	0.5355
2848	0.5393
2839	0.545
2830	0.5525
2821	0.5704
2812	0.5923
2803	0.6109
2794	0.6272
2785	0.6434
2776	0.6533
2767	0.6615
2758	0.6697
2749	0.6741
2740	0.6769
2731	0.6798
2722	0.6826
2713	0.685
2704	0.6868
2695	0.6887
2686	0.6906
2677	0.6928
2668	0.6951
2659	0.6978
2650	0.7022
2641	0.7067
2632	0.7119
2623	0.7192
2614	0.7271
2605	0.7383
2596	0.7471
2587	0.7533
2578	0.7584
2569	0.7628
2560	0.7674
2551	0.7717
2542	0.7761
2533	0.7804
2524	0.7849
2515	0.7897
2506	0.7945
2497	0.7993
2488	0.8042
2479	0.8089
2470	0.8133
2461	0.8178
2452	0.8221
2443	0.8266
2434	0.8304
2425	0.8342
2416	0.8388
2407	0.8441
2398	0.8497
2389	0.8525
2380	0.8545
2371	0.8553
2362	0.8562
2353	0.8583
2344	0.8616
2335	0.8649
2326	0.868
2317	0.8712
2308	0.8736
2299	0.8757
2290	0.8775
2281	0.8785
2272	0.8794
2263	0.8803
2254	0.881
2245	0.8816
2236	0.8823
2227	0.8836
2218	0.8852
2209	0.8868
2200	0.8885
2191	0.8898
2182	0.8912
2173	0.8932
2164	0.8958
2155	0.8984
2146	0.8996
2137	0.9007
2128	0.9018
2119	0.9033
2110	0.9051
2101	0.9068
2092	0.9084
2083	0.9096
2074	0.9106
2065	0.9116
2056	0.9138
2047	0.9166
2038	0.92
2029	0.9233
2020	0.9262
2011	0.9274
2002	0.9281
1993	0.9287
1984	0.9291
1975	0.9283
1966	0.9275
1957	0.9234
1948	0.9175
1939	0.9164
1930	0.9175
1921	0.9125
1912	0.9093
1903	0.9171
1894	0.9253
1885	0.932
1876	0.9332
1867	0.9333
1858	0.9333
1849	0.9328
1840	0.9321
1831	0.9314
1822	0.9312
1813	0.9311
1804	0.931
1795	0.9291
1786	0.9207
1777	0.912
1768	0.9127
1759	0.9193
1750	0.9198
1741	0.9249
1732	0.9275
1723	0.9278
1714	0.9291
1705	0.9288
1696	0.929
1687	0.9241
1678	0.9171
1669	0.9086
1660	0.8945
1651	0.8738
1642	0.8328
1633	0.7475
1624	0.5351
1615	0.5214
1606	0.5769
1597	0.5884
1588	0.3304
1579	0.0838
1570	0.2579
1561	0.5342
1552	0.3468
1543	0.3355
1534	0.4717
1525	0.5
1516	0.3495
1507	0.1176
1498	0.1451
1489	0.4468
1480	0.5437
1471	0.53
1462	0.4684
1453	0.5008
1444	0.6426
1435	0.6678
1426	0.5245
1417	0.6578
1408	0.6358
1399	0.4828
1390	0.551
1381	0.3606
1372	0.4014
1363	0.5762
1354	0.6958
1345	0.7799
1336	0.6811
1327	0.6707
1318	0.801
1309	0.8012
1300	0.6731
1291	0.6371
1282	0.5687
1273	0.3932
1264	0.2346
1255	0.3327
1246	0.4781
1237	0.6742
1228	0.7178
1219	0.6169
1210	0.7317
1201	0.6431
1192	0.6649
1183	0.8069
1174	0.7301
1165	0.6601
1156	0.7314
1147	0.8118
1138	0.8303
1129	0.8022
1120	0.6531
1111	0.635
1102	0.7708
1093	0.7491
1084	0.6568
1075	0.7005
1066	0.7274
1057	0.6939
1048	0.7581
1039	0.8435
1030	0.8753
1021	0.8827
1012	0.8608
1003	0.6933
994	0.8124
985	0.8661
976	0.8878
967	0.8821
958	0.8354
949	0.8684
940	0.8736
931	0.874
922	0.8411
913	0.6991
904	0.7033
895	0.7636
886	0.6697
877	0.6412
868	0.8306
859	0.4686
850	0.7321
841	0.7578
832	0.7618
823	0.4704
814	0.5445
805	0.7933
796	0.7685
787	0.665
778	0.7137
769	0.6032
760	0.734
751	0.8615
742	0.9091
733	0.9154
724	0.9058
715	0.9028
706	0.9107
697	0.9144
688	0.9099
679	0.8931
670	0.8702
