Infrared Spectrum: Propoxycaine
Formula: C 16 H 26 N 2 O 3
CAS: 86-43-1
State: gas
Instrument: HP-GC/MS/IRD
Origin: NIST Mass Spectrometry Data Center
1/CM	ABSORBANCE
550	0.0010836
562	0.0004802
574	0.0003962
586	0.0004718
598	0.0003948
610	0.000581
622	0.0008036
634	0.0007
646	0.0006216
658	0.0009884
670	0.0015862
682	0.0011704
694	0.0009226
706	0.0008596
718	0.0006342
730	0.0005852
742	0.0005894
754	0.000707
766	0.0013496
778	0.0010402
790	0.0007518
802	0.000868
814	0.0012362
826	0.0012768
838	0.00084
850	0.0005292
862	0.0001778
874	5.46e-05
886	2.38e-05
898	5.46e-05
910	0.0002044
922	0.0003542
934	0.0005194
946	0.000868
958	0.0009408
970	0.0009604
982	0.0011634
994	0.0024472
1006	0.0026502
1018	0.0023212
1030	0.0020916
1042	0.0029848
1054	0.0052822
1066	0.0093282
1078	0.0085456
1090	0.0073654
1102	0.005985
1114	0.0038696
1126	0.004991
1138	0.0102032
1150	0.0059206
1162	0.0025508
1174	0.0035098
1186	0.0068922
1198	0.0072436
1210	0.0057708
1222	0.0053648
1234	0.0095844
1246	0.014
1258	0.0114296
1270	0.0119042
1282	0.00742
1294	0.0047992
1306	0.0054978
1318	0.0056574
1330	0.0031682
1342	0.0020426
1354	0.0018214
1366	0.0020566
1378	0.0029526
1390	0.0031962
1402	0.0015316
1414	0.0010892
1426	0.0018844
1438	0.0045472
1450	0.004347
1462	0.002667
1474	0.0022162
1486	0.0017528
1498	0.0025816
1510	0.002317
1522	0.0009716
1534	0.000763
1546	0.000952
1558	0.001568
1570	0.0032732
1582	0.0043218
1594	0.0050358
1606	0.009359
1618	0.0101248
1630	0.0097958
1642	0.0039368
1654	0.0018074
1666	0.0012208
1678	0.001064
1690	0.0014616
1702	0.002632
1714	0.0055762
1726	0.0072548
1738	0.0097118
1750	0.0048006
1762	0.0017822
1774	0.0008764
1786	0.0003892
1798	0.000196
1810	0.0001078
1822	4.76e-05
1834	4.34e-05
1846	2.52e-05
1858	4.48e-05
1870	4.9e-05
1882	8.26e-05
1894	9.66e-05
1906	8.96e-05
1918	8.68e-05
1930	8.96e-05
1942	4.9e-05
1954	5.18e-05
1966	3.08e-05
1978	1.68e-05
1990	0
2002	7e-06
2014	2.24e-05
2026	2.38e-05
2038	3.78e-05
2050	6.44e-05
2062	4.34e-05
2074	3.78e-05
2086	5.04e-05
2098	4.34e-05
2110	1.54e-05
2122	3.92e-05
2134	2.66e-05
2146	3.22e-05
2158	1.96e-05
2170	5.18e-05
2182	1.54e-05
2194	2.8e-05
2206	2.8e-05
2218	4.06e-05
2230	2.38e-05
2242	4.76e-05
2254	0
2266	5.32e-05
2278	3.92e-05
2290	2.52e-05
2302	7e-05
2314	6.44e-05
2326	7.84e-05
2338	7.7e-05
2350	7.42e-05
2362	0.000112
2374	0.0001162
2386	6.02e-05
2398	6.16e-05
2410	5.46e-05
2422	3.22e-05
2434	2.1e-05
2446	3.36e-05
2458	2.1e-05
2470	3.92e-05
2482	6.58e-05
2494	6.3e-05
2506	7.84e-05
2518	7.28e-05
2530	5.74e-05
2542	6.16e-05
2554	6.44e-05
2566	7.84e-05
2578	0.0001484
2590	0.0001442
2602	0.0001218
2614	0.0001624
2626	0.0001778
2638	0.0002198
2650	0.0002156
2662	0.0002324
2674	0.0002884
2686	0.0003108
2698	0.0003948
2710	0.0004956
2722	0.0006076
2734	0.0007126
2746	0.0008008
2758	0.0009618
2770	0.0011844
2782	0.0014672
2794	0.0021546
2806	0.0028532
2818	0.0029022
2830	0.0025466
2842	0.002177
2854	0.0020594
2866	0.0024892
2878	0.0033866
2890	0.0037268
2902	0.0035238
2914	0.0038906
2926	0.0047964
2938	0.0060354
2950	0.006419
2962	0.0067802
2974	0.0087962
2986	0.0059752
2998	0.0027076
3010	0.0014392
3022	0.0009716
3034	0.0010178
3046	0.0010682
3058	0.000833
3070	0.0007378
3082	0.0005614
3094	0.0003654
3106	0.0002744
3118	0.0002408
3130	0.0002086
3142	0.0001736
3154	0.0001316
3166	0.0001302
3178	0.0001218
3190	0.0001414
3202	0.0001246
3214	0.0001456
3226	0.0001764
3238	0.0001134
3250	2.66e-05
3262	5.6e-05
3274	2.94e-05
3286	3.78e-05
3298	3.36e-05
3310	3.92e-05
3322	2.66e-05
3334	3.78e-05
3346	6.58e-05
3358	9.94e-05
3370	0.0001092
3382	0.000154
3394	0.0003066
3406	0.0006104
3418	0.0010052
3430	0.0008302
3442	0.0003738
3454	0.0002366
3466	0.0001974
3478	0.0002212
3490	0.0002758
3502	0.0004242
3514	0.0003682
3526	0.0002898
3538	0.0001526
3550	0.000112
3562	6.72e-05
3574	8.54e-05
3586	4.34e-05
3598	7.56e-05
3610	6.02e-05
3622	5.32e-05
3634	7.7e-05
3646	8.4e-05
3658	9.38e-05
3670	7.28e-05
3682	9.8e-05
3694	6.3e-05
3706	6.72e-05
3718	8.96e-05
3730	6.86e-05
3742	7.14e-05
3754	0.0001204
3766	9.8e-05
3778	9.52e-05
3790	0.0001358
3802	6.3e-05
3814	7.84e-05
3826	0.0001036
3838	8.68e-05
