Infrared Spectrum: Azinphos methyl
Formula: C 10 H 12 N 3 O 3 P S 2
CAS: 86-50-0
State: gas
Instrument: HP-GC/MS/IRD
Origin: NIST Mass Spectrometry Data Center
1/CM	ABSORBANCE
550	0.0013005
562	0.0007276
574	0.0006511
586	0.0007718
598	0.0009282
610	0.0011492
622	0.0012869
634	0.001547
646	0.003757
658	0.0099535
670	0.0048892
682	0.0025993
694	0.0020842
706	0.0019635
718	0.0017255
730	0.0014943
742	0.0012937
754	0.0014858
766	0.0031059
778	0.0064821
790	0.0035955
802	0.00459
814	0.0058667
826	0.0061829
838	0.0039576
850	0.0027829
862	0.0022848
874	0.0018428
886	0.0026452
898	0.0040307
910	0.0021539
922	0.001683
934	0.0015912
946	0.0015266
958	0.0018598
970	0.0024939
982	0.0027081
994	0.0026588
1006	0.0041276
1018	0.0081311
1030	0.015351
1042	0.015504
1054	0.0095846
1066	0.0062203
1078	0.0037689
1090	0.0024531
1102	0.0020366
1114	0.0017119
1126	0.0012648
1138	0.0009588
1150	0.0009571
1162	0.0008772
1174	0.0014977
1186	0.001275
1198	0.00034
1210	3.74e-05
1222	7.48e-05
1234	0.0001938
1246	0.0008296
1258	0.0020859
1270	0.0023783
1282	0.0041429
1294	0.0031229
1306	0.0018564
1318	0.0024752
1330	0.0018462
1342	0.0013685
1354	0.0008874
1366	0.0008007
1378	0.0008653
1390	0.0009571
1402	0.0011849
1414	0.0013855
1426	0.0013226
1438	0.0016677
1450	0.0022423
1462	0.0031467
1474	0.0020689
1486	0.0017969
1498	0.0023579
1510	0.001496
1522	0.0012869
1534	0.0012376
1546	0.0011866
1558	0.0011424
1570	0.001156
1582	0.0012988
1594	0.0012546
1606	0.0012988
1618	0.001122
1630	0.0008687
1642	0.0008449
1654	0.0008925
1666	0.0010302
1678	0.0012155
1690	0.0019737
1702	0.0063138
1714	0.0132685
1726	0.0040375
1738	0.0016932
1750	0.0011373
1762	0.0008466
1774	0.0006596
1786	0.0006341
1798	0.0006035
1810	0.0005831
1822	0.0005338
1834	0.0005797
1846	0.0006443
1858	0.0006324
1870	0.0006137
1882	0.00051
1894	0.0004539
1906	0.0004335
1918	0.0004318
1930	0.0004777
1942	0.0004947
1954	0.0004641
1966	0.0004403
1978	0.0004607
1990	0.0003519
2002	0.000374
2014	0.0004012
2026	0.0003961
2038	0.0003842
2050	0.0004097
2062	0.0004216
2074	0.0003723
2086	0.0003485
2098	0.0003315
2110	0.0003196
2122	0.0003077
2134	0.0003315
2146	0.0003128
2158	0.0003043
2170	0.0002805
2182	0.0002805
2194	0.0003179
2206	0.0003315
2218	0.0002822
2230	0.000289
2242	0.0003213
2254	0.0003094
2266	0.0003111
2278	0.0002295
2290	0.0002618
2302	0.0002652
2314	0.000289
2326	0.0002414
2338	0.0002567
2350	0.0002023
2362	0.0002074
2374	0.0001972
2386	0.0001904
2398	0.0001598
2410	0.0001615
2422	0.0001377
2434	0.0001411
2446	8.67e-05
2458	3.4e-05
2470	9.18e-05
2482	7.82e-05
2494	0.0001207
2506	0.0001241
2518	0.0001343
2530	0.0001411
2542	0.00017
2554	0.0001394
2566	0.0001496
2578	0.0001343
2590	0.0001836
2602	0.000187
2614	0.0002142
2626	0.0002295
2638	0.000238
2650	0.0002261
2662	0.0001717
2674	0.0002125
2686	0.0002856
2698	0.0002431
2710	0.0002771
2722	0.000289
2734	0.0003026
2746	0.0002567
2758	0.0002737
2770	0.0002958
2782	0.0003162
2794	0.000408
2806	0.0004012
2818	0.0004403
2830	0.0004896
2842	0.0006341
2854	0.0009979
2866	0.000646
2878	0.0005457
2890	0.000561
2902	0.0006494
2914	0.0006851
2926	0.0007055
2938	0.0010166
2950	0.0020791
2962	0.0023562
2974	0.0010778
2986	0.0008653
2998	0.0009214
3010	0.0009401
3022	0.0010336
3034	0.0007259
3046	0.0006477
3058	0.0005865
3070	0.0007531
3082	0.0010438
3094	0.0006885
3106	0.0005236
3118	0.0004318
3130	0.0003604
3142	0.0004097
3154	0.0003808
3166	0.0003553
3178	0.0002924
3190	0.0002975
3202	0.0003094
3214	0.0002788
3226	0.0002516
3238	0.0002839
3250	0.0002737
3262	0.0002601
3274	0.000255
3286	0.000204
3298	0.0003026
3310	0.0002652
3322	0.0001649
3334	0.000221
3346	0.0001802
3358	0.0002482
3370	0.0002329
3382	0.0001717
3394	0.0002346
3406	0.0002465
3418	0.0002686
3430	0.0001581
3442	0.0001615
3454	0.0001394
3466	0.0001292
3478	5.44e-05
3490	8.67e-05
3502	0.0001394
3514	0
3526	9.86e-05
3538	0.0001122
3550	0.0001275
3562	8.84e-05
3574	5.95e-05
3586	0.0001853
3598	9.35e-05
3610	0.0001802
3622	0.0002771
3634	0.0002788
3646	9.01e-05
3658	0.0001496
3670	2.72e-05
3682	0.0001989
3694	0.0001156
3706	0.0001564
3718	0.0002958
3730	0.0002941
3742	0.000187
3754	0.000204
3766	0.0002533
3778	0.0002397
3790	0.0001768
3802	0.0001683
3814	0.0002499
3826	0.0002754
3838	0.0001955
