Infrared Spectrum: 1-Nitronaphthalene
Formula: C10 H7 N O2
CAS: 86-57-7
State: SOLUTION (2% CCl4 FOR 3800-1330, 2% CS2 FOR 1330-450 CM^-^1)
Class: COBLENTZ III
Instrument: DOW KBr FOREPRISM-GRATING
Instrument parameters: BLAZED AT 3.5, 12.0, 20.0 MICRON AND CHANGED AT 5.0, 7.5, 14.9 MICRON
Sampling: TRANSMISSION
Path length: 0.011 CM, 0.011 CM
Resolution: 2
Origin: DOW CHEMICAL COMPANY
1/CM	TRANSMITTANCE
3792	0.9248
3783	0.9261
3774	0.9298
3765	0.9298
3756	0.9294
3747	0.9317
3738	0.9356
3729	0.9349
3720	0.9326
3711	0.9306
3702	0.9301
3693	0.9323
3684	0.935
3675	0.9317
3666	0.9289
3657	0.9287
3648	0.9295
3639	0.9304
3630	0.9296
3621	0.9289
3612	0.9284
3603	0.9283
3594	0.9281
3585	0.9172
3576	0.9202
3567	0.9236
3558	0.9245
3549	0.9256
3540	0.926
3531	0.927
3522	0.926
3513	0.9262
3504	0.9265
3495	0.927
3486	0.9275
3477	0.9277
3468	0.9278
3459	0.9278
3450	0.9279
3441	0.928
3432	0.9282
3423	0.9285
3414	0.9288
3405	0.929
3396	0.9293
3387	0.9295
3378	0.9295
3369	0.9296
3360	0.9297
3351	0.9301
3342	0.9318
3333	0.9315
3324	0.933
3315	0.9339
3306	0.9357
3297	0.9349
3288	0.9351
3279	0.9359
3270	0.9356
3261	0.9353
3252	0.935
3243	0.9346
3234	0.9341
3225	0.933
3216	0.9339
3207	0.9326
3198	0.9328
3189	0.9329
3180	0.9321
3171	0.9317
3162	0.9318
3153	0.9318
3144	0.9302
3135	0.9313
3126	0.9314
3117	0.9318
3108	0.9314
3099	0.9252
3090	0.9057
3081	0.9029
3072	0.887
3063	0.8652
3054	0.8747
3045	0.899
3036	0.9177
3027	0.9179
3018	0.9188
3009	0.921
3000	0.9254
2991	0.9272
2982	0.9276
2973	0.9288
2964	0.9297
2955	0.9291
2946	0.9281
2937	0.9251
2928	0.917
2919	0.9057
2910	0.9045
2901	0.9105
2892	0.916
2883	0.9183
2874	0.9186
2865	0.9153
2856	0.9079
2847	0.8975
2838	0.9061
2829	0.9188
2820	0.9248
2811	0.9253
2802	0.9258
2793	0.9242
2784	0.9233
2775	0.9229
2766	0.9246
2757	0.9261
2748	0.9267
2739	0.9272
2730	0.9278
2721	0.9282
2712	0.9289
2703	0.9293
2694	0.9301
2685	0.9307
2676	0.9314
2667	0.932
2658	0.9326
2649	0.9322
2640	0.9321
2631	0.9319
2622	0.9329
2613	0.9327
2604	0.9325
2595	0.9322
2586	0.932
2577	0.9319
2568	0.9321
2559	0.9322
2550	0.9324
2541	0.9325
2532	0.9326
2523	0.9327
2514	0.9328
2505	0.9328
2496	0.9329
2487	0.9329
2478	0.9337
2469	0.9332
2460	0.9328
2451	0.9323
2442	0.9317
2433	0.931
2424	0.9305
2415	0.9296
2406	0.9295
2397	0.9287
2388	0.9295
2379	0.9363
2370	0.944
2361	0.9461
2352	0.9544
2343	0.9583
2334	0.9628
2325	0.9687
2316	0.9577
2307	0.9416
2298	0.9366
2289	0.9361
2280	0.9366
2271	0.9353
2262	0.9352
2253	0.9337
2244	0.9334
2235	0.9348
2226	0.9367
2217	0.9374
2208	0.939
2199	0.9402
2190	0.94
2181	0.9411
2172	0.9431
2163	0.9427
2154	0.9436
2145	0.9443
2136	0.9449
2127	0.9446
2118	0.9451
2109	0.9436
2100	0.9408
2091	0.9445
2082	0.9464
2073	0.9462
2064	0.9457
2055	0.9504
2046	0.9565
2037	0.9616
2028	0.9521
2019	0.9524
2010	0.9543
2001	0.9553
1992	0.9569
1983	0.9103
1974	0.9082
1965	0.9065
1956	0.905
1947	0.9002
1938	0.8975
1929	0.9043
1920	0.9091
1911	0.909
1902	0.9096
1893	0.9054
1884	0.9035
1875	0.9054
1866	0.9052
1857	0.9027
1848	0.8981
1839	0.8981
1830	0.9015
1821	0.897
1812	0.9057
1803	0.9089
1794	0.9091
1785	0.908
1776	0.9116
1767	0.9133
1758	0.9163
1749	0.9143
1740	0.9111
1731	0.9084
1722	0.9053
1713	0.9147
1704	0.9181
1695	0.9153
1686	0.9173
1677	0.9134
1668	0.9171
1659	0.9199
1650	0.9249
1641	0.912
1632	0.8606
1623	0.8994
1614	0.8905
1605	0.8001
1596	0.8132
1587	0.773
1578	0.7698
1569	0.6938
1560	0.7085
1551	0.6435
1542	0.6362
1533	0.1112
1524	0.1202
1515	0.6466
1506	0.7266
1497	0.8252
1488	0.8711
1479	0.8983
1470	0.8891
1461	0.7933
1452	0.8738
1443	0.8417
1434	0.8755
1425	0.9165
1416	0.9187
1407	0.9182
1398	0.9126
1389	0.905
1380	0.8632
1371	0.768
1362	0.6611
1353	0.6716
1344	0.4351
1335	0.4971
1326	0.7128
1317	0.8173
1308	0.8929
1299	0.9232
1290	0.9391
1281	0.9463
1272	0.9426
1263	0.812
1254	0.9238
1245	0.9548
1236	0.9608
1227	0.9549
1218	0.9111
1209	0.9556
1200	0.9443
1191	0.9536
1182	0.9558
1173	0.9585
1164	0.9441
1155	0.9501
1146	0.9285
1137	0.9619
1128	0.9804
1119	0.9831
1110	0.98
1101	0.9741
1092	0.9712
1083	0.964
1074	0.9356
1065	0.9605
1056	0.9625
1047	0.9648
1038	0.9647
1029	0.9158
1020	0.9396
1011	0.9604
1002	0.9557
993	0.9427
984	0.9543
975	0.9469
966	0.9451
957	0.9458
948	0.9488
939	0.9558
930	0.9541
921	0.9538
912	0.9556
903	0.9545
894	0.9525
885	0.9356
876	0.8865
867	0.8525
858	0.8657
849	0.8889
840	0.9259
831	0.9451
822	0.9441
813	0.8881
804	0.6535
795	0.8241
786	0.7858
777	0.6083
768	0.4088
759	0.8884
750	0.9254
741	0.9349
732	0.9399
723	0.9356
714	0.9366
705	0.9459
696	0.9535
687	0.9559
678	0.9578
669	0.9698
660	0.9694
651	0.8773
642	0.953
633	0.965
624	0.9755
615	0.9822
606	0.9848
597	0.9884
588	0.9772
579	0.9616
570	0.9829
561	0.9907
552	0.9908
543	0.9935
534	0.9926
525	0.9769
516	0.9756
507	0.9159
498	0.92
489	0.964
480	0.9776
471	0.9745
462	0.9729
453	0.9779
444	0.9956
