Infrared Spectrum: Fluorene
Formula: C 13 H 10
CAS: 86-73-7
State: gas
Instrument: HP-GC/MS/IRD
Origin: NIST Mass Spectrometry Data Center
1/CM	ABSORBANCE
550	4e-05
562	8.8e-05
574	7.2e-05
586	0.00026
598	0.000264
610	0.000556
622	0.002936
634	0.00078
646	0.000172
658	0.000172
670	0.000324
682	0.001156
694	0.00208
706	0.001816
718	0.006772
730	0.027052
742	0.028892
754	0.008068
766	0.001524
778	0.000572
790	0.000292
802	0.000192
814	0.000208
826	0.000188
838	0.00026
850	0.000412
862	0.0006
874	0.000556
886	0.00014
898	0.000128
910	0.000112
922	0.000172
934	0.000332
946	0.00086
958	0.001176
970	0.000508
982	0.000404
994	0.001812
1006	0.002316
1018	0.000792
1030	0.001076
1042	0.000392
1054	0.000148
1066	0.000208
1078	0.000468
1090	0.000712
1102	0.000552
1114	0.000292
1126	0.000156
1138	0.000364
1150	0.001044
1162	0.001312
1174	0.0021
1186	0.001988
1198	0.000956
1210	0.000496
1222	0.000744
1234	0.000732
1246	0.000304
1258	0.000188
1270	0.000276
1282	0.00112
1294	0.002204
1306	0.000972
1318	0.000592
1330	0.000828
1342	0.00048
1354	0.000192
1366	0.000324
1378	0.000612
1390	0.000924
1402	0.001784
1414	0.002508
1426	0.0023
1438	0.00444
1450	0.008696
1462	0.004932
1474	0.002744
1486	0.002004
1498	0.000288
1510	0.00038
1522	0.000212
1534	0.00012
1546	0.00014
1558	0.000284
1570	0.000992
1582	0.001816
1594	0.001236
1606	0.000752
1618	0.000452
1630	0.000436
1642	0.00048
1654	0.000352
1666	0.000616
1678	0.000568
1690	0.000552
1702	0.000412
1714	0.0004
1726	0.000168
1738	0.000168
1750	0.000288
1762	0.000252
1774	0.00038
1786	0.000688
1798	0.000824
1810	0.0008
1822	0.000852
1834	0.000656
1846	0.000552
1858	0.000276
1870	0.0004
1882	0.00084
1894	0.000884
1906	0.000712
1918	0.000556
1930	0.001216
1942	0.00124
1954	0.000208
1966	9.6e-05
1978	7.6e-05
1990	8.8e-05
2002	3.6e-05
2014	3.2e-05
2026	1.2e-05
2038	1.6e-05
2050	1.2e-05
2062	2e-05
2074	0
2086	2e-05
2098	5.2e-05
2110	1.2e-05
2122	0
2134	4e-06
2146	1.6e-05
2158	3.2e-05
2170	8e-06
2182	5.2e-05
2194	5.2e-05
2206	5.2e-05
2218	7.2e-05
2230	5.2e-05
2242	9.2e-05
2254	0.000136
2266	0.000156
2278	8e-05
2290	7.6e-05
2302	0.000152
2314	0.000172
2326	0.000188
2338	0.00014
2350	8e-05
2362	4e-05
2374	3.2e-05
2386	6.4e-05
2398	8e-05
2410	0.0001
2422	8.4e-05
2434	5.6e-05
2446	0.000116
2458	8.8e-05
2470	7.2e-05
2482	0.000116
2494	8.4e-05
2506	8.8e-05
2518	8.8e-05
2530	9.6e-05
2542	9.6e-05
2554	9.2e-05
2566	9.2e-05
2578	9.6e-05
2590	0.000156
2602	0.00018
2614	0.000192
2626	0.000204
2638	0.000208
2650	0.000128
2662	0.000116
2674	0.000152
2686	0.000104
2698	7.6e-05
2710	0.000104
2722	0.000104
2734	0.000112
2746	0.000132
2758	0.000184
2770	0.000212
2782	0.000308
2794	0.000484
2806	0.000688
2818	0.000656
2830	0.000384
2842	0.00022
2854	0.000124
2866	0.000228
2878	0.000392
2890	0.00108
2902	0.003364
2914	0.004968
2926	0.003572
2938	0.001068
2950	0.000292
2962	0.00014
2974	0.00022
2986	0.000488
2998	0.001224
3010	0.003624
3022	0.006864
3034	0.007712
3046	0.00886
3058	0.01098
3070	0.017128
3082	0.010576
3094	0.004872
3106	0.0018
3118	0.000608
3130	0.000404
3142	0.00046
3154	0.000724
3166	0.000664
3178	0.000232
3190	0.000192
3202	0.00012
3214	9.6e-05
3226	0.000136
3238	0.000112
3250	0.000104
3262	8.4e-05
3274	7.6e-05
3286	3.6e-05
3298	9.6e-05
3310	9.2e-05
3322	8.8e-05
3334	6e-05
3346	6.4e-05
3358	6.8e-05
3370	8.4e-05
3382	6e-05
3394	6.8e-05
3406	0.0001
3418	4e-05
3430	5.6e-05
3442	3.2e-05
3454	6.8e-05
3466	0.000104
3478	9.2e-05
3490	7.6e-05
3502	5.2e-05
3514	4e-05
3526	6.4e-05
3538	6e-05
3550	6.4e-05
3562	6.4e-05
3574	9.6e-05
3586	8e-05
3598	7.2e-05
3610	0.0001
3622	0.000104
3634	0.00012
3646	0.000136
3658	0.000148
3670	0.000124
3682	0.000104
3694	0.000156
3706	0.000156
3718	0.000116
3730	7.6e-05
3742	0.000124
3754	0.000128
3766	0.000108
3778	0.00016
3790	0.000148
3802	0.000184
3814	0.000148
3826	0.000184
3838	0.000128
