Infrared Spectrum: 2-Hydroxydibenzofuran
Formula: C 12 H 8 O 2
CAS: 86-77-1
State: gas
Instrument: HP-GC/MS/IRD
Origin: NIST Mass Spectrometry Data Center
1/CM	ABSORBANCE
550	0.0006444
562	0.0005076
574	5.04e-05
586	0.0003636
598	0.00153
610	0.001548
622	0.0022824
634	0.0005508
646	0.0002556
658	6.12e-05
670	0.0002268
682	0.000216
694	0.0001404
706	0.0006552
718	0.002016
730	0.0047376
742	0.0092412
754	0.006174
766	0.0015264
778	0.0011916
790	0.0039384
802	0.007128
814	0.0065988
826	0.0045036
838	0.005616
850	0.0034848
862	0.0037836
874	0.0015408
886	0.001008
898	0.0020952
910	0.0010368
922	0.0004572
934	0.0003996
946	0.0002448
958	0.0002124
970	0.0001188
982	0.0002304
994	0.0004032
1006	0.00099
1018	0.0012888
1030	0.0006696
1042	0.0004644
1054	0.0004716
1066	0.0003816
1078	0.0006552
1090	0.00144
1102	0.0040824
1114	0.003654
1126	0.001962
1138	0.0038592
1150	0.0122796
1162	0.036
1174	0.0187056
1186	0.0173196
1198	0.0139284
1210	0.0066744
1222	0.004428
1234	0.0048168
1246	0.0032436
1258	0.0022464
1270	0.0038772
1282	0.004428
1294	0.003438
1306	0.0044784
1318	0.0043272
1330	0.0027576
1342	0.0029124
1354	0.001872
1366	0.00081
1378	0.000414
1390	0.0003924
1402	0.0008064
1414	0.0014256
1426	0.0030024
1438	0.0090612
1450	0.010332
1462	0.0072504
1474	0.017784
1486	0.0184716
1498	0.0060444
1510	0.0017784
1522	0.0009828
1534	0.000756
1546	0.000612
1558	0.000558
1570	0.0008748
1582	0.002106
1594	0.00369
1606	0.0028296
1618	0.0016884
1630	0.0020484
1642	0.001692
1654	0.0006444
1666	0.0005004
1678	0.0004644
1690	0.0004104
1702	0.0003492
1714	0.0002988
1726	0.000396
1738	0.0002592
1750	0.0001188
1762	0.0002412
1774	0.0003312
1786	0.0001764
1798	0.0001476
1810	0.0003276
1822	0.00027
1834	0.0002448
1846	0.0004212
1858	0.0005112
1870	0.0001872
1882	0.0003564
1894	0.0003816
1906	0.0001656
1918	0.0002808
1930	0.0004716
1942	9.36e-05
1954	7.56e-05
1966	8.64e-05
1978	5.04e-05
1990	6.84e-05
2002	0.0001008
2014	0.0001296
2026	0.0001116
2038	0.000108
2050	0.0001296
2062	0.0001872
2074	0.0001656
2086	0.0001548
2098	9e-05
2110	0.0001044
2122	0.000108
2134	5.76e-05
2146	5.76e-05
2158	1.44e-05
2170	8.64e-05
2182	6.48e-05
2194	6.48e-05
2206	8.64e-05
2218	5.76e-05
2230	6.48e-05
2242	6.48e-05
2254	6.84e-05
2266	8.28e-05
2278	6.84e-05
2290	0.000162
2302	0.0001512
2314	0.0001008
2326	9e-05
2338	0.0001152
2350	0.0001476
2362	9.36e-05
2374	0.000144
2386	0.0002232
2398	0.0002304
2410	0.0002664
2422	0.0002844
2434	0.0002232
2446	0.0002088
2458	0.000252
2470	0.0002628
2482	0.00018
2494	0.0001944
2506	0.0001188
2518	0.0001656
2530	0.0001548
2542	7.2e-05
2554	0.0001116
2566	9e-05
2578	9.72e-05
2590	0.0001224
2602	0.0001224
2614	0.0001008
2626	0.0001764
2638	0.0001656
2650	0.0001548
2662	0.000162
2674	8.28e-05
2686	8.64e-05
2698	5.4e-05
2710	9.36e-05
2722	3.96e-05
2734	6.84e-05
2746	4.32e-05
2758	3.24e-05
2770	0.0001188
2782	0.0001188
2794	0.0001656
2806	0.000108
2818	0.0001656
2830	0.0001188
2842	8.64e-05
2854	0.0001296
2866	0.0001188
2878	0.0001404
2890	0.000108
2902	0.0001656
2914	0.0002808
2926	0.0002844
2938	0.0002196
2950	0.0002124
2962	0.000126
2974	0.0001008
2986	8.64e-05
2998	0.0002088
3010	0.0004176
3022	0.001152
3034	0.002034
3046	0.002106
3058	0.0029412
3070	0.0034164
3082	0.003042
3094	0.0019116
3106	0.0009972
3118	0.0003636
3130	0.0001404
3142	0.0001296
3154	0.0001044
3166	0.0001296
3178	9e-05
3190	0.0001296
3202	3.6e-05
3214	0.000144
3226	9.36e-05
3238	0.0001008
3250	5.76e-05
3262	0.0001404
3274	3.96e-05
3286	0.0001044
3298	8.64e-05
3310	7.92e-05
3322	0.0001188
3334	7.2e-05
3346	7.92e-05
3358	0.0001188
3370	0.000108
3382	0.000126
3394	0.0002016
3406	0.0001944
3418	0.0002556
3430	0.0001548
3442	0.0001152
3454	0.0001476
3466	0.0001044
3478	4.68e-05
3490	0.0001224
3502	3.96e-05
3514	6.84e-05
3526	0.0001404
3538	0.0001296
3550	6.84e-05
3562	3.6e-05
3574	0.0001008
3586	6.48e-05
3598	7.92e-05
3610	0.0001548
3622	0.000396
3634	0.0011808
3646	0.0045648
3658	0.0087732
3670	0.0022716
3682	0.0003528
3694	0.0001656
3706	0.000144
3718	0.0001152
3730	0.000126
3742	0.0001152
3754	3.96e-05
3766	0.0001332
3778	0.0001908
3790	0.0001368
3802	0.0001944
3814	0.0001152
3826	0.0002016
3838	0.0002016
