Infrared Spectrum: DIMETHISOQUIN
Formula: C17 H24 N2 O
CAS: 86-80-6
State: SOLUTION (CS2 FOR 2-15, C2Cl4 FOR 5-7.2 MICRONS)
Boiling point: 155-157 C AT 3 mmHg
Class: COBLENTZ III
Instrument: PERKIN-ELMER 21 (GRATING)
Instrument parameters: FILTER CHANGE AT 10 MICRON
Sampling: TRANSMISSION
Path length: 0.01 CM, 0.01 CM
Resolution: 2
MICROMETERS	TRANSMITTANCE
2.09	0.977
2.12333	0.976
2.15667	0.975
2.19	0.975
2.22334	0.968
2.25667	0.971
2.29001	0.969
2.32334	0.945
2.35668	0.952
2.39001	0.953
2.42335	0.946
2.45668	0.958
2.49001	0.953
2.52335	0.954
2.55668	0.957
2.59002	0.958
2.62335	0.96
2.65669	0.962
2.69002	0.963
2.72336	0.963
2.75669	0.964
2.79003	0.97
2.82336	0.982
2.85669	0.971
2.89003	0.969
2.92336	0.968
2.9567	0.965
2.99003	0.963
3.02337	0.962
3.0567	0.959
3.09004	0.952
3.12337	0.946
3.15671	0.94
3.19004	0.934
3.22337	0.919
3.25671	0.7
3.29004	0.803
3.32338	0.687
3.35671	0.392
3.39005	0.131
3.42338	0.151
3.45672	0.33
3.49005	0.359
3.52339	0.4
3.55672	0.376
3.59005	0.424
3.62339	0.316
3.65672	0.661
3.69006	0.784
3.72339	0.866
3.75673	0.887
3.79006	0.902
3.8234	0.92
3.85673	0.928
3.89007	0.932
3.9234	0.936
3.95673	0.937
3.99007	0.937
4.0234	0.937
4.05674	0.939
4.09007	0.94
4.12341	0.943
4.15674	0.945
4.19008	0.947
4.22341	0.949
4.25675	0.951
4.29008	0.953
4.32341	0.956
4.35675	0.954
4.39008	0.954
4.42342	0.963
4.45675	0.962
4.49009	0.964
4.52342	0.968
4.55676	0.966
4.59009	0.968
4.62343	0.966
4.65676	0.966
4.69009	0.965
4.72343	0.963
4.75676	0.958
4.7901	0.953
4.82343	0.947
4.85677	0.951
4.8901	0.943
4.92344	0.947
4.95677	0.951
4.99011	0.95
5.02344	0.954
5.05677	0.954
5.09011	0.939
5.12344	0.912
5.15678	0.939
5.19011	0.915
5.22345	0.945
5.25678	0.945
5.29012	0.953
5.32345	0.954
5.35679	0.954
5.39012	0.947
5.42345	0.93
5.45679	0.941
5.49012	0.917
5.52346	0.936
5.55679	0.95
5.59013	0.944
5.62346	0.947
5.6568	0.947
5.69013	0.947
5.72347	0.94
5.7568	0.937
5.79013	0.944
5.82347	0.928
5.8568	0.908
5.89014	0.918
5.92347	0.922
5.95681	0.914
5.99014	0.886
6.02348	0.856
6.05681	0.809
6.09015	0.566
6.12348	0.26
6.15681	0.407
6.19015	0.726
6.22348	0.81
6.25682	0.569
6.29015	0.597
6.32349	0.477
6.35682	0.191
6.39016	0.59
6.42349	0.767
6.45683	0.889
6.49016	0.9
6.52349	0.912
6.55683	0.915
6.59016	0.901
6.6235	0.776
6.65683	0.456
6.69017	0.364
6.7235	0.619
6.75684	0.71
6.79017	0.595
6.82351	0.357
6.85684	0.33
6.89017	0.329
6.92351	0.465
6.95684	0.543
6.99018	0.616
7.02351	0.624
7.05685	0.328
7.09018	0.163
7.12352	0.145
7.15685	0.279
7.19019	0.47
7.22352	0.426
7.25685	0.36
7.29019	0.306
7.32352	0.399
7.35686	0.522
7.39019	0.396
7.42353	0.311
7.45686	0.253
7.4902	0.144
7.52353	0.078
7.55687	0.029
7.5902	0.03
7.62353	0.12
7.65687	0.31
7.6902	0.45
7.72354	0.514
7.75687	0.53
7.79021	0.483
7.82354	0.484
7.85688	0.569
7.89021	0.591
7.92355	0.645
7.95688	0.71
7.99021	0.754
8.02355	0.761
8.05688	0.763
8.09022	0.774
8.12355	0.752
8.15689	0.674
8.19022	0.625
8.22356	0.633
8.25689	0.702
8.29023	0.731
8.32356	0.723
8.35689	0.722
8.39023	0.674
8.42356	0.661
8.4569	0.672
8.49023	0.699
8.52357	0.657
8.5569	0.658
8.59024	0.68
8.62357	0.415
8.65691	0.104
8.69024	0.203
8.72357	0.611
8.75691	0.658
8.79024	0.477
8.82358	0.495
8.85691	0.702
8.89025	0.681
8.92358	0.497
8.95692	0.218
8.99025	0.181
9.02359	0.264
9.05692	0.309
9.09025	0.305
9.12359	0.298
9.15692	0.387
9.19026	0.38
9.22359	0.322
9.25693	0.37
9.29026	0.491
9.3236	0.55
9.35693	0.598
9.39027	0.611
9.4236	0.574
9.45693	0.55
9.49027	0.58
9.5236	0.617
9.55694	0.58
9.59027	0.476
9.62361	0.497
9.65694	0.541
9.69028	0.598
9.72361	0.598
9.75695	0.56
9.79028	0.518
9.82361	0.561
9.85695	0.635
9.89028	0.659
9.92362	0.668
9.95695	0.678
9.99029	0.694
10.0236	0.693
10.057	0.652
10.0903	0.563
10.1236	0.503
10.157	0.482
10.1903	0.514
10.2236	0.581
10.257	0.637
10.2903	0.668
10.3236	0.664
10.357	0.68
10.3903	0.695
10.4236	0.704
10.457	0.632
10.4903	0.572
10.5236	0.639
10.557	0.683
10.5903	0.732
10.6236	0.77
10.657	0.795
10.6903	0.815
10.7236	0.825
10.757	0.843
10.7903	0.864
10.8237	0.886
10.857	0.894
10.8903	0.899
10.9237	0.902
10.957	0.905
10.9903	0.895
11.0237	0.89
11.057	0.875
11.0903	0.857
11.1237	0.848
11.157	0.845
11.1903	0.843
11.2237	0.847
11.257	0.85
11.2903	0.844
11.3237	0.85
11.357	0.85
11.3903	0.832
11.4237	0.815
11.457	0.747
11.4903	0.633
11.5237	0.568
11.557	0.578
11.5903	0.637
11.6237	0.661
11.657	0.674
11.6903	0.676
11.7237	0.68
11.757	0.683
11.7904	0.686
11.8237	0.687
11.857	0.626
11.8904	0.483
11.9237	0.316
11.957	0.345
11.9904	0.536
12.0237	0.681
12.057	0.779
12.0904	0.811
12.1237	0.835
12.157	0.832
12.1904	0.813
12.2237	0.81
12.257	0.817
12.2904	0.83
12.3237	0.838
12.357	0.836
12.3904	0.828
12.4237	0.819
12.457	0.812
12.4904	0.804
12.5237	0.795
12.557	0.784
12.5904	0.763
12.6237	0.733
12.6571	0.726
12.6904	0.736
12.7237	0.735
12.7571	0.735
12.7904	0.735
12.8237	0.739
12.8571	0.734
12.8904	0.725
12.9237	0.721
12.9571	0.727
12.9904	0.735
13.0237	0.747
13.0571	0.768
13.0904	0.783
13.1237	0.79
13.1571	0.793
13.1904	0.755
13.2237	0.689
13.2571	0.552
13.2904	0.225
13.3237	0.022
13.3571	0.118
13.3904	0.34
13.4237	0.52
13.4571	0.648
13.4904	0.719
13.5237	0.777
13.5571	0.802
13.5904	0.831
13.6238	0.838
13.6571	0.848
13.6904	0.843
13.7238	0.838
13.7571	0.85
13.7904	0.862
13.8238	0.882
13.8571	0.888
13.8904	0.894
13.9238	0.898
13.9571	0.898
13.9904	0.898
14.0238	0.895
14.0571	0.893
14.0904	0.892
14.1238	0.877
14.1571	0.873
14.1904	0.866
14.2238	0.86
14.2571	0.855
14.2904	0.853
14.3238	0.853
14.3571	0.854
14.3904	0.855
14.4238	0.856
14.4571	0.857
14.4905	0.861
14.5238	0.861
14.5571	0.861
14.5905	0.86
14.6238	0.847
14.6571	0.836
14.6905	0.822
14.7238	0.796
14.7571	0.751
14.7905	0.689
14.8238	0.616
14.8571	0.505
14.8905	0.396
14.9238	0.361
