Infrared Spectrum: 1-NAPHTHALENEACETIC ACID
Formula: C12 H10 O2
CAS: 86-87-3
State: SOLID (1.0% IN KBr PELLET)
Class: COBLENTZ
Instrument: Not specified, most likely a prism, grating, or hybrid spectrometer.
Sampling: TRANSMISSION
Path length: 0.0355 CM THICK
Resolution: 4
Origin: ANDERSON PHYSICAL LABORATORY
1/CM	TRANSMITTANCE
668.539	0.777
676.966	0.75
685.393	0.5781
693.82	0.6589
702.247	0.816
710.674	0.812
719.101	0.7431
727.528	0.624
735.955	0.636
744.382	0.719
752.809	0.698
761.236	0.5782
769.663	0.3074
778.09	0.034
786.517	0.3879
794.944	0.3539
803.371	0.4236
811.798	0.831
820.225	0.858
828.652	0.846
837.079	0.84
845.506	0.807
853.933	0.681
862.36	0.755
870.787	0.7021
879.214	0.615
887.641	0.638
896.068	0.573
904.495	0.53
912.922	0.462
921.349	0.417
929.776	0.363
938.202	0.378
946.629	0.465
955.056	0.5429
963.483	0.654
971.91	0.654
980.337	0.615
988.764	0.747
997.191	0.795
1005.62	0.795
1014.05	0.7701
1022.47	0.7428
1030.9	0.822
1039.33	0.819
1047.75	0.821
1056.18	0.83
1064.61	0.821
1073.03	0.773
1081.46	0.765
1089.89	0.822
1098.32	0.815
1106.74	0.797
1115.17	0.768
1123.6	0.74
1132.02	0.707
1140.45	0.632
1148.88	0.602
1157.3	0.518
1165.73	0.495
1174.16	0.463
1182.59	0.3641
1191.01	0.3669
1199.44	0.333
1207.87	0.2371
1216.29	0.067
1224.72	0.0999
1233.15	0.388
1241.57	0.45
1250	0.228
1258.43	0.333
1266.85	0.328
1275.28	0.3579
1283.71	0.402
1292.14	0.394
1300.56	0.4499
1308.99	0.531
1317.42	0.495
1325.84	0.408
1334.27	0.441
1342.7	0.644
1351.12	0.698
1359.55	0.696
1367.98	0.698
1376.41	0.648
1384.83	0.593
1393.26	0.433
1401.69	0.265
1410.11	0.217
1418.54	0.195
1426.97	0.393
1435.39	0.5959
1443.82	0.618
1452.25	0.6979
1460.68	0.797
1469.1	0.816
1477.53	0.834
1485.96	0.83
1494.38	0.819
1502.81	0.761
1511.24	0.507
1519.66	0.6737
1528.09	0.782
1536.52	0.782
1544.95	0.785
1553.37	0.773
1561.8	0.747
1570.23	0.729
1578.65	0.68
1587.08	0.657
1595.51	0.545
1603.93	0.5507
1612.36	0.6411
1620.79	0.594
1629.22	0.542
1637.64	0.483
1646.07	0.445
1654.5	0.366
1662.92	0.306
1671.35	0.192
1679.78	0.063
1688.2	0.028
1696.63	0.042
1705.06	0.052
1713.49	0.1439
1721.91	0.2819
1730.34	0.462
1738.77	0.573
1747.19	0.636
1755.62	0.686
1764.05	0.714
1772.47	0.737
1780.9	0.753
1789.33	0.753
1797.75	0.752
1806.18	0.77
1814.61	0.785
1823.04	0.792
1831.46	0.818
1839.89	0.827
1848.32	0.831
1856.74	0.831
1865.17	0.831
1873.6	0.828
1882.02	0.827
1890.45	0.825
1898.88	0.819
1907.31	0.818
1915.73	0.804
1924.16	0.804
1932.59	0.8
1941.01	0.786
1949.44	0.788
1957.87	0.816
1966.29	0.842
1974.72	0.846
1983.15	0.846
1991.58	0.845
2000	0.839
2008.43	0.8355
2016.86	0.8295
2025.28	0.8255
2033.71	0.822
2042.14	0.8205
2050.56	0.819
2058.99	0.819
2067.42	0.818
2075.85	0.8174
2084.27	0.816
2092.7	0.8134
2101.13	0.8119
2109.55	0.8084
2117.98	0.8064
2126.41	0.804
2134.83	0.801
2143.26	0.7971
2151.69	0.7944
2160.12	0.7839
2168.54	0.782
2176.97	0.78
2185.4	0.7794
2193.82	0.7762
2202.25	0.7704
2210.68	0.763
2219.1	0.755
2227.53	0.752
2235.96	0.749
2244.38	0.747
2252.81	0.746
2261.24	0.7431
2269.67	0.7406
2278.09	0.7332
2286.52	0.731
2294.95	0.7264
2303.37	0.716
2311.8	0.7038
2320.23	0.699
2328.65	0.6951
2337.08	0.689
2345.51	0.6852
2353.94	0.6833
2362.36	0.6812
2370.79	0.674
2379.22	0.6654
2387.64	0.6519
2396.07	0.6336
2404.5	0.6254
2412.92	0.6175
2421.35	0.6128
2429.78	0.5993
2438.21	0.5896
2446.63	0.5757
2455.06	0.5617
2463.49	0.5462
2471.91	0.5338
2480.34	0.5252
2488.77	0.5145
2497.19	0.4961
2505.62	0.4803
2514.05	0.4745
2522.48	0.472
2530.9	0.468
2539.33	0.4637
2547.76	0.4555
2556.18	0.4485
2564.61	0.4468
2573.04	0.4357
2581.46	0.4304
2589.89	0.4213
2598.32	0.4139
2606.75	0.411
2615.17	0.4099
2623.6	0.409
2632.03	0.411
2640.45	0.412
2648.88	0.412
2657.31	0.414
2665.73	0.414
2674.16	0.4133
2682.59	0.411
2691.02	0.4082
2699.44	0.4018
2707.87	0.4
2716.3	0.4
2724.72	0.402
2733.15	0.405
2741.58	0.405
2750	0.4005
2758.43	0.3961
2766.86	0.38
2775.28	0.3619
2783.71	0.344
2792.14	0.322
2800.57	0.3159
2808.99	0.3106
2817.42	0.2991
2825.85	0.2894
2834.27	0.2858
2842.7	0.2805
2851.13	0.271
2859.55	0.2612
2867.98	0.2555
2876.41	0.2496
2884.84	0.2476
2893.26	0.246
2901.69	0.246
2910.12	0.246
2918.54	0.246
2926.97	0.246
2935.4	0.246
2943.82	0.246
2952.25	0.2433
2960.68	0.24
2969.11	0.2363
2977.53	0.2226
2985.96	0.2168
2994.39	0.214
3002.81	0.2078
3011.24	0.2045
3019.67	0.204
3028.09	0.207
3036.52	0.2115
3044.95	0.2226
3053.38	0.2356
3061.8	0.2531
3070.23	0.2648
3078.66	0.2716
3087.08	0.281
3095.51	0.2944
3103.94	0.3149
3112.36	0.3326
3120.79	0.3452
3129.22	0.3614
3137.65	0.3755
3146.07	0.3904
3154.5	0.4014
3162.93	0.4173
3171.35	0.4256
3179.78	0.4373
3188.21	0.4467
3196.63	0.4533
3205.06	0.4634
3213.49	0.4708
3221.92	0.4801
3230.34	0.4967
3238.77	0.5112
3247.2	0.5239
3255.62	0.5362
3264.05	0.5462
3272.48	0.551
3280.9	0.5546
3289.33	0.5598
3297.76	0.5643
3306.18	0.5664
3314.61	0.5683
3323.04	0.5718
3331.47	0.5733
3339.89	0.575
3348.32	0.573
3356.75	0.572
3365.17	0.57
3373.6	0.57
3382.03	0.57
3390.45	0.57
3398.88	0.57
3407.31	0.5709
3415.74	0.572
3424.16	0.573
3432.59	0.5766
3441.02	0.5815
3449.44	0.5907
3457.87	0.594
3466.3	0.599
3474.72	0.6014
3483.15	0.6082
3491.58	0.612
3500.01	0.6142
3508.43	0.6195
3516.86	0.6255
3525.29	0.627
3533.71	0.6298
3542.14	0.637
3550.57	0.6448
3558.99	0.6481
3567.42	0.6563
3575.85	0.6595
3584.28	0.6646
3592.7	0.668
3601.13	0.6696
3609.56	0.6731
3617.98	0.6748
3626.41	0.6771
3634.84	0.6789
3643.26	0.6836
3651.69	0.686
3660.12	0.687
3668.55	0.687
3676.97	0.687
3685.4	0.686
3693.83	0.683
3702.25	0.681
3710.68	0.68
3719.11	0.6771
3727.53	0.6738
3735.96	0.6703
3744.39	0.6668
3752.82	0.6633
3761.24	0.6617
3769.67	0.6582
3778.1	0.6541
3786.52	0.6501
3794.95	0.648
3803.38	0.647
3811.8	0.647
3820.23	0.647
3828.66	0.647
3837.08	0.647
3845.51	0.647
3853.94	0.645
3862.37	0.644
3870.79	0.642
3879.22	0.641
3887.65	0.6381
3896.07	0.6358
3904.5	0.6341
3912.93	0.633
3921.35	0.632
3929.78	0.632
3938.21	0.632
3946.64	0.632
3955.06	0.629
3963.49	0.629
3971.92	0.6281
3980.34	0.6263
