Infrared Spectrum: ACETAMIDE, N-1-NAPHTHYLACETO-
Formula: C14 H13 N O2
CAS: 86-83-9
State: SOLID (SPLIT MULL)
Melting point: 118 C
Class: COBLENTZ II
Instrument: BECKMAN IR-9 (GRATING)
Instrument parameters: ORDER CHANGES: 670, 1200, 2000 CM^-^1
Sampling: TRANSMISSION
Resolution: 2
Origin: DOW CHEMICAL COMPANY
1/CM	TRANSMITTANCE
399	0.6462
408	0.6381
417	0.6387
426	0.6562
435	0.7365
444	0.7775
453	0.8119
462	0.8218
471	0.8378
480	0.87
489	0.874
498	0.7844
507	0.8985
516	0.8963
525	0.7591
534	0.7388
543	0.8811
552	0.8203
561	0.8702
570	0.8859
579	0.8644
588	0.7801
597	0.8668
606	0.8742
615	0.8535
624	0.8715
633	0.8625
642	0.849
651	0.8701
660	0.8525
669	0.8341
678	0.8328
687	0.8297
696	0.8294
705	0.8304
714	0.7938
723	0.7625
732	0.7942
741	0.8087
750	0.8175
759	0.8099
768	0.7425
777	0.7801
786	0.3366
795	0.4177
804	0.7611
813	0.74
822	0.8202
831	0.8332
840	0.8475
849	0.851
858	0.8447
867	0.8458
876	0.8518
885	0.8618
894	0.8434
903	0.8649
912	0.8575
921	0.8649
930	0.8675
939	0.8663
948	0.8642
957	0.8556
966	0.8375
975	0.8203
984	0.8482
993	0.8368
1002	0.7674
1011	0.8271
1020	0.8139
1029	0.8465
1038	0.8575
1047	0.8555
1056	0.8613
1065	0.8609
1074	0.8577
1083	0.852
1092	0.8551
1101	0.8575
1110	0.8554
1119	0.8482
1128	0.8378
1137	0.8083
1146	0.7538
1155	0.4479
1164	0.6921
1173	0.769
1182	0.6343
1191	0.8243
1200	0.84
1209	0.8401
1218	0.8423
1227	0.8448
1236	0.8418
1245	0.8347
1254	0.8315
1263	0.8065
1272	0.8046
1281	0.7911
1290	0.7007
1299	0.7149
1308	0.7578
1317	0.7543
1326	0.6791
1335	0.486
1344	0.5414
1353	0.5604
1362	0.5684
1371	0.6741
1380	0.7071
1389	0.6989
1398	0.5337
1407	0.6431
1416	0.5781
1425	0.7075
1434	0.6886
1443	0.7449
1452	0.7598
1461	0.7551
1470	0.7576
1479	0.7538
1488	0.7362
1497	0.6999
1506	0.5374
1515	0.5965
1524	0.4425
1533	0.2355
1542	0.4129
1551	0.684
1560	0.7601
1569	0.7841
1578	0.7091
1587	0.7553
1596	0.4915
1605	0.7565
1614	0.73
1623	0.6567
1632	0.5774
1641	0.358
1650	0.239
1659	0.3812
1668	0.4795
1677	0.7191
1686	0.7782
1695	0.8106
1704	0.7218
1713	0.4795
1722	0.2505
1731	0.7668
1740	0.8549
1749	0.8775
1758	0.8802
1767	0.8802
1776	0.8792
1785	0.8766
1794	0.8752
1803	0.8745
1812	0.873
1821	0.8712
1830	0.8766
1839	0.8757
1848	0.8748
1857	0.872
1866	0.8692
1875	0.8678
1884	0.8703
1893	0.874
1902	0.8759
1911	0.8747
1920	0.8714
1929	0.8665
1938	0.8618
1947	0.8577
1956	0.8554
1965	0.8577
1974	0.8598
1983	0.8562
1992	0.8514
2001	0.856
2010	0.8578
2019	0.8587
2028	0.8585
2037	0.8573
2046	0.8561
2055	0.8541
2064	0.852
2073	0.85
2082	0.8478
2091	0.8459
2100	0.8447
2109	0.8435
2118	0.8421
2127	0.8403
2136	0.8385
2145	0.8367
2154	0.8348
2163	0.8325
2172	0.8305
2181	0.8283
2190	0.8261
2199	0.8228
2208	0.8197
2217	0.8164
2226	0.8126
2235	0.8088
2244	0.805
2253	0.8011
2262	0.7986
2271	0.7962
2280	0.7942
2289	0.7921
2298	0.7906
2307	0.7894
2316	0.7893
2325	0.7901
2334	0.7917
2343	0.7928
2352	0.7942
2361	0.7943
2370	0.794
2379	0.7917
2388	0.7885
2397	0.7853
2406	0.7832
2415	0.7825
2424	0.7821
2433	0.781
2442	0.7806
2451	0.7804
2460	0.7798
2469	0.7788
2478	0.7787
2487	0.7786
2496	0.7784
2505	0.7778
2514	0.7786
2523	0.7796
2532	0.7789
2541	0.778
2550	0.7771
2559	0.7761
2568	0.7751
2577	0.7742
2586	0.7731
2595	0.7718
2604	0.7706
2613	0.7692
2622	0.7674
2631	0.7655
2640	0.7637
2649	0.7618
2658	0.7598
2667	0.7578
2676	0.7558
2685	0.7538
2694	0.7508
2703	0.7478
2712	0.7454
2721	0.7433
2730	0.7411
2739	0.7388
2748	0.7364
2757	0.7339
2766	0.7308
2775	0.7274
2784	0.7221
2793	0.7153
2802	0.7041
2811	0.6958
2820	0.6934
2829	0.6964
2838	0.6982
2847	0.6967
2856	0.6915
2865	0.6865
2874	0.6885
2883	0.6914
2892	0.6915
2901	0.6887
2910	0.6751
2919	0.6571
2928	0.6541
2937	0.6557
2946	0.6464
2955	0.6383
2964	0.646
2973	0.6468
2982	0.6426
2991	0.635
3000	0.6188
3009	0.5895
3018	0.5495
3027	0.5054
3036	0.5254
3045	0.564
3054	0.595
3063	0.6133
3072	0.6196
3081	0.6259
3090	0.6252
3099	0.6197
3108	0.6112
3117	0.6012
3126	0.5866
3135	0.5725
3144	0.5517
3153	0.5226
3162	0.4854
3171	0.4573
3180	0.4476
3189	0.4303
3198	0.3923
3207	0.3514
3216	0.3259
3225	0.325
3234	0.3807
3243	0.4443
3252	0.4877
3261	0.5268
3270	0.5635
3279	0.5992
3288	0.6218
3297	0.6371
3306	0.651
3315	0.6617
3324	0.6676
3333	0.6715
3342	0.6744
3351	0.6751
3360	0.6748
3369	0.6739
3378	0.6725
3387	0.6703
3396	0.6678
3405	0.6653
3414	0.6625
3423	0.6594
3432	0.6571
3441	0.6578
3450	0.6582
3459	0.6568
3468	0.6551
3477	0.6538
3486	0.6525
3495	0.651
3504	0.6495
3513	0.6478
3522	0.6462
3531	0.645
3540	0.6438
3549	0.6425
3558	0.6412
3567	0.639
3576	0.6353
3585	0.6205
3594	0.6271
3603	0.6297
3612	0.6295
3621	0.6277
3630	0.6262
3639	0.6245
3648	0.6221
3657	0.6196
3666	0.6172
3675	0.6153
3684	0.6144
3693	0.615
3702	0.6156
3711	0.616
3720	0.6164
3729	0.6165
3738	0.6166
3747	0.6166
3756	0.6166
3765	0.6167
3774	0.6159
3783	0.6146
3792	0.6133
