Infrared Spectrum: 2,4-Quinolinediol (mainly keto form)
Formula: C9 H7 N O2
CAS: 86-95-3
State: SOLID (SPLIT MULL), FLUOROLUBE FOR 3800-1330 CM^-^1, NUJOL FOR 1330-400 CM^-^1
Melting point: 350 C
Class: COBLENTZ III
Instrument: BECKMAN IR-9 (GRATING)
Instrument parameters: ORDER CHANGES: 670, 1200, 2000 CM^-^1
Sampling: TRANSMISSION
Resolution: 2
Origin: DOW CHEMICAL COMPANY
1/CM	TRANSMITTANCE
3800	0.7898
3791	0.7899
3782	0.7901
3773	0.7903
3764	0.7905
3755	0.7907
3746	0.7911
3737	0.7919
3728	0.7928
3719	0.7937
3710	0.7946
3701	0.7955
3692	0.7964
3683	0.7967
3674	0.7969
3665	0.7972
3656	0.7971
3647	0.7968
3638	0.7971
3629	0.7976
3620	0.7978
3611	0.7978
3602	0.7975
3593	0.7962
3584	0.7918
3575	0.7961
3566	0.7975
3557	0.7978
3548	0.7986
3539	0.7992
3530	0.7997
3521	0.8001
3512	0.8007
3503	0.8008
3494	0.8008
3485	0.8011
3476	0.8011
3467	0.8012
3458	0.8003
3449	0.7988
3440	0.7975
3431	0.7965
3422	0.7956
3413	0.7943
3404	0.7932
3395	0.7928
3386	0.7919
3377	0.7907
3368	0.7894
3359	0.7875
3350	0.7843
3341	0.7781
3332	0.7694
3323	0.7581
3314	0.7465
3305	0.7356
3296	0.7222
3287	0.7136
3278	0.7086
3269	0.7054
3260	0.7026
3251	0.6999
3242	0.6961
3233	0.6889
3224	0.679
3215	0.6696
3206	0.6547
3197	0.6412
3188	0.6235
3179	0.606
3170	0.5865
3161	0.5649
3152	0.5397
3143	0.5094
3134	0.4793
3125	0.4659
3116	0.4521
3107	0.4265
3098	0.3328
3089	0.3621
3080	0.3824
3071	0.3857
3062	0.3938
3053	0.3964
3044	0.3954
3035	0.3705
3026	0.3592
3017	0.362
3008	0.3403
2999	0.3023
2990	0.2913
2981	0.2797
2972	0.2587
2963	0.2297
2954	0.2222
2945	0.2498
2936	0.2638
2927	0.2599
2918	0.2441
2909	0.2435
2900	0.2634
2891	0.2757
2882	0.2692
2873	0.2295
2864	0.2281
2855	0.2437
2846	0.2653
2837	0.2601
2828	0.2498
2819	0.2677
2810	0.3009
2801	0.3271
2792	0.3429
2783	0.3444
2774	0.3294
2765	0.3248
2756	0.3426
2747	0.3637
2738	0.3845
2729	0.4064
2720	0.4259
2711	0.445
2702	0.4589
2693	0.4694
2684	0.4686
2675	0.4692
2666	0.4815
2657	0.464
2648	0.441
2639	0.4393
2630	0.4504
2621	0.4654
2612	0.4838
2603	0.5022
2594	0.5019
2585	0.481
2576	0.4801
2567	0.4703
2558	0.4809
2549	0.505
2540	0.5218
2531	0.5367
2522	0.5454
2513	0.5543
2504	0.564
2495	0.5738
2486	0.5826
2477	0.5903
2468	0.5982
2459	0.6065
2450	0.616
2441	0.6279
2432	0.6438
2423	0.6412
2414	0.6471
2405	0.6543
2396	0.664
2387	0.6733
2378	0.6761
2369	0.6795
2360	0.6865
2351	0.6891
2342	0.6939
2333	0.6994
2324	0.7057
2315	0.7136
2306	0.7215
2297	0.7296
2288	0.7376
2279	0.7453
2270	0.7528
2261	0.7604
2252	0.7676
2243	0.775
2234	0.7825
2225	0.7901
2216	0.7974
2207	0.804
2198	0.8105
2189	0.8169
2180	0.8233
2171	0.8296
2162	0.8363
2153	0.8424
2144	0.8484
2135	0.8548
2126	0.8612
2117	0.863
2108	0.8632
2099	0.8647
2090	0.8731
2081	0.8818
2072	0.8852
2063	0.8894
2054	0.8892
2045	0.881
2036	0.8853
2027	0.8928
2018	0.8958
2009	0.8903
2000	0.8918
1991	0.9024
1982	0.902
1973	0.8951
1964	0.8701
1955	0.8757
1946	0.8827
1937	0.8592
1928	0.8684
1919	0.8668
1910	0.8611
1901	0.8846
1892	0.8804
1883	0.8788
1874	0.8814
1865	0.8842
1856	0.8866
1847	0.8885
1838	0.8893
1829	0.8818
1820	0.8696
1811	0.8731
1802	0.8766
1793	0.8697
1784	0.8628
1775	0.8777
1766	0.8902
1757	0.891
1748	0.8902
1739	0.8868
1730	0.8642
1721	0.8309
1712	0.7878
1703	0.7121
1694	0.5918
1685	0.3091
1676	0.0331
1667	0.0489
1658	0.1357
1649	0.1959
1640	0.0445
1631	0.1062
1622	0.3256
1613	0.117
1604	0.2108
1595	0.0589
1586	0.497
1577	0.6015
1568	0.5287
1559	0.5471
1550	0.5006
1541	0.6764
1532	0.7875
1523	0.7411
1514	0.4269
1505	0.3203
1496	0.6671
1487	0.701
1478	0.3726
1469	0.2323
1460	0.3118
1451	0.5951
1442	0.7201
1433	0.7161
1424	0.1858
1415	0.4058
1406	0.5588
1397	0.6701
1388	0.4938
1379	0.2739
1370	0.67
1361	0.6204
1352	0.3568
1343	0.3397
1334	0.0545
1325	0.3209
1316	0.6083
1307	0.663
1298	0.6839
1289	0.7328
1280	0.7586
1271	0.7146
1262	0.3287
1253	0.5382
1244	0.1975
1235	0.2622
1226	0.7319
1217	0.7949
1208	0.8178
1199	0.8205
1190	0.8032
1181	0.8111
1172	0.7887
1163	0.6378
1154	0.7894
1145	0.7515
1136	0.8321
1127	0.8406
1118	0.8361
1109	0.7205
1100	0.6943
1091	0.8056
1082	0.7761
1073	0.8186
1064	0.8257
1055	0.8296
1046	0.8157
1037	0.5771
1028	0.7971
1019	0.8007
1010	0.7851
1001	0.7826
992	0.7849
983	0.753
974	0.7682
965	0.7328
956	0.6789
947	0.7238
938	0.6782
929	0.599
920	0.516
911	0.5096
902	0.5887
893	0.6457
884	0.5712
875	0.3572
866	0.4234
857	0.611
848	0.6946
839	0.6637
830	0.765
821	0.814
812	0.8187
803	0.821
794	0.8151
785	0.7815
776	0.4683
767	0.1702
758	0.2306
749	0.8255
740	0.8188
731	0.7989
722	0.7433
713	0.8317
704	0.8631
695	0.8803
686	0.8783
677	0.65
668	0.862
659	0.8675
650	0.8146
641	0.8804
632	0.6234
623	0.854
614	0.8803
605	0.8809
596	0.8801
587	0.8761
578	0.8682
569	0.8578
560	0.8468
551	0.8314
542	0.7993
533	0.6239
524	0.7925
515	0.4988
506	0.5997
497	0.7801
488	0.7758
479	0.7553
470	0.5625
461	0.5615
452	0.6658
443	0.6614
434	0.5821
425	0.5307
416	0.4421
407	0.2901
