Infrared Spectrum: 5-Mercapto-1-phenyltetrazole
Formula: C 7 H 6 N 4 S
CAS: 86-93-1
State: gas
Origin: EPA-IR VAPOR PHASE LIBRARY
1/CM	ABSORBANCE
549.8	0.0005048
559.445	0.0009316
569.09	0.0010463
578.734	0.0008008
588.379	0.000919
598.024	0.0008124
607.669	0.0007003
617.313	0.0006161
626.958	0.0008147
636.603	0.001136
646.248	0.00162
655.893	0.00165
665.537	0.00243
675.182	0.0031
684.827	0.00421
694.472	0.00387
704.116	0.00345
713.761	0.00276
723.406	0.00333
733.051	0.00486
742.695	0.00713
752.34	0.00689
761.985	0.00489
771.63	0.00239
781.275	0.00137
790.919	0.00122
800.564	0.0010959
810.209	0.0010084
819.854	0.00136
829.498	0.0011123
839.143	0.0015
848.788	0.00123
858.433	0.00123
868.078	0.00169
877.722	0.00196
887.367	0.00221
897.012	0.00198
906.657	0.00158
916.301	0.0011036
925.946	0.0009534
935.591	0.000708
945.236	0.0009328
954.88	0.000495
964.525	0.0008897
974.17	0.0007248
983.815	0.0006453
993.46	0.0005032
1003.1	0.0001413
1012.75	0.0004393
1022.39	0.000745
1032.04	0.0006946
1041.68	0.0003954
1051.33	0.0006673
1060.97	0.0005456
1070.62	0.000891
1080.26	0.0005217
1089.91	0.0011347
1099.55	0.00145
1109.2	0.00133
1118.84	0.0008164
1128.49	0.0006953
1138.13	0.0006898
1147.78	0.0005683
1157.42	0.0001776
1167.07	0.0004636
1176.71	0.0007246
1186.36	0.0007821
1196	0.0007922
1205.64	0.00145
1215.29	0.00212
1224.93	0.00504
1234.58	0.00828
1244.22	0.00739
1253.87	0.00308
1263.51	0.0016
1273.16	0.00183
1282.8	0.00203
1292.45	0.00245
1302.09	0.00224
1311.74	0.00156
1321.38	0.0008351
1331.03	0.0005817
1340.67	0.0005916
1350.32	0.0004827
1359.96	0.0006351
1369.61	0.000832
1379.25	0.0009048
1388.9	0.0008575
1398.54	0.00152
1408.18	0.00506
1417.83	0.0057
1427.47	0.00333
1437.12	0.0009938
1446.76	0.0009129
1456.41	0.0011155
1466.05	0.00166
1475.7	0.00274
1485.34	0.00572
1494.99	0.01421
1504.63	0.01364
1514.28	0.0057
1523.92	0.0010481
1533.57	0.0005714
1543.21	0.0005358
1552.86	0.000606
1562.5	0.0009633
1572.15	0.00147
1581.79	0.00366
1591.44	0.00882
1601.08	0.01091
1610.73	0.00632
1620.37	0.00214
1630.01	0.00121
1639.66	0.0009732
1649.3	0.0006903
1658.95	0.0005054
1668.59	0.0004974
1678.24	0.0006378
1687.88	0.0007242
1697.53	0.0006503
1707.17	0.0006048
1716.82	0.0005249
1726.46	0.0004597
1736.11	0.0003598
1745.75	0.00027393
1755.4	0.0004005
1765.04	0.0004754
1774.69	0.0005195
1784.33	0.0003949
1793.98	0.0003925
1803.62	0.0003438
1813.27	0.0003731
1822.91	0.0003849
1832.55	0.0004147
1842.2	0.0004751
1851.84	0.0004991
1861.49	0.0005193
1871.13	0.0004523
1880.78	0.0003171
1890.42	0.0004285
1900.07	0.0004373
1909.71	0.0004952
1919.36	0.0005408
1929	0.0006436
1938.65	0.0005929
1948.29	0.0006115
1957.94	0.000411
1967.58	0.0003571
1977.23	0.00029979
1986.87	0.0003738
1996.52	0.0004081
2006.16	0.0004415
2015.81	0.0005014
2025.45	0.0005927
2035.1	0.0005925
2044.74	0.000532
2054.38	0.000605
2064.03	0.0007162
2073.67	0.00091
2083.32	0.0011383
2092.96	0.0013
2102.61	0.00194
2112.25	0.00353
2121.9	0.00723
2131.54	0.00963
2141.19	0.00935
2150.83	0.00833
2160.48	0.00803
2170.12	0.00619
2179.77	0.00422
2189.41	0.00346
2199.06	0.00303
2208.7	0.00301
2218.35	0.00374
2227.99	0.00598
2237.64	0.01213
2247.28	0.01788
2256.92	0.01503
2266.57	0.00477
2276.21	0.00185
2285.86	0.00144
2295.5	0.0011825
2305.15	0.0009415
2314.79	0.000815
2324.44	0.0007621
2334.08	0.000773
2343.73	0.000569
2353.37	0.0005222
2363.02	0.0004433
2372.66	0.0004086
2382.31	0.0003188
2391.95	0.0003115
2401.6	0.00028095
2411.24	0.00027469
2420.89	0.0003281
2430.53	0.0003577
2440.18	0.0003046
2449.82	0.00019363
2459.47	0.00029984
2469.11	0.0002462
2478.75	0.000358
2488.4	0.00026955
2498.04	0.00029912
2507.69	0.00024358
2517.33	0.0003198
2526.98	0.0003595
2536.62	0.0003772
2546.27	0.0003955
2555.91	0.00027308
2565.56	0.0003102
2575.2	0.0004292
2584.85	0.000358
2594.49	0.0003349
2604.14	0.000333
2613.78	0.0003466
2623.43	0.0003809
2633.07	0.0004431
2642.72	0.0003274
2652.36	0.0004237
2662.01	0.0003035
2671.65	0.0004285
2681.29	0.0003158
2690.94	0.0003217
2700.58	0.0003643
2710.23	0.000363
2719.87	0.00029923
2729.52	0.00028242
2739.16	0.0003941
2748.81	0.0003717
2758.45	0.00028418
2768.1	0.0002818
2777.74	0.00023673
2787.39	0.0003042
2797.03	0.0003928
2806.68	0.0003566
2816.32	0.0004214
2825.97	0.0004269
2835.61	0.0003021
2845.26	0.0004117
2854.9	0.0003353
2864.55	0.0004064
2874.19	0.0003125
2883.84	0.000304
2893.48	0.0003824
2903.12	0.0004177
2912.77	0.0003061
2922.41	0.0003836
2932.06	0.0004927
2941.7	0.00024221
2951.35	0.0004457
2960.99	0.0004122
2970.64	0.0003262
2980.28	0.0003524
2989.93	0.0003768
2999.57	0.0003454
3009.22	0.0006742
3018.86	0.0010417
3028.51	0.00156
3038.15	0.002
3047.8	0.00226
3057.44	0.00269
3067.09	0.00263
3076.73	0.00241
3086.38	0.0022
3096.02	0.00192
3105.67	0.00141
3115.31	0.0009324
3124.95	0.0007439
3134.6	0.0004042
3144.24	0.0003732
3153.89	0.00028176
3163.53	0.0003921
3173.18	0.0003499
3182.82	0.0004842
3192.47	0.0004244
3202.11	0.0003155
3211.76	0.0004762
3221.4	0.000448
3231.05	0.0003997
3240.69	0.0004355
3250.34	0.0004121
3259.98	0.0004865
3269.63	0.0004321
3279.27	0.0006039
3288.92	0.0005097
3298.56	0.0003511
3308.21	0.0004043
3317.85	0.0003479
3327.49	0.0004672
3337.14	0.0005571
3346.78	0.0006186
3356.43	0.00058
3366.07	0.0005383
3375.72	0.0006667
3385.36	0.0005558
3395.01	0.000606
3404.65	0.0009233
3414.3	0.0021
3423.94	0.00258
3433.59	0.00293
3443.23	0.0031
3452.88	0.00352
3462.52	0.00342
3472.17	0.00253
3481.81	0.00166
3491.46	0.0012
3501.1	0.0005329
3510.75	0.0004812
3520.39	0.0004438
3530.04	0.0005304
3539.68	0.0001081
3549.32	0.0005029
3558.97	0.00027154
3568.61	0.0002864
3578.26	0.0004318
3587.9	0.00029064
3597.55	0.00023031
3607.19	0.00023991
3616.84	0.00026295
3626.48	0.0003751
3636.13	0.000199244
3645.77	0.0003607
3655.42	0.00027603
3665.06	0.0004145
3674.71	0.0001898
3684.35	0.00027764
3694	0.0002463
3703.64	0.0003449
3713.29	0.0001728
3722.93	0.0003068
3732.58	0.00024623
3742.22	0.0003147
3751.86	0.00021675
3761.51	0.000165
3771.15	0.0001425
3780.8	0.00026103
3790.44	0.0003188
3800.09	0.000195
3809.73	0.0002342
3819.38	0.0001296
3829.02	0.000159
3838.67	0.000122
3848.31	0.00021027
3857.96	0.00023831
3867.6	0.0001762
3877.25	0.00021321
3886.89	9.5e-05
3896.54	0.00028523
3906.18	0.0001289
3915.83	0.00024104
3925.47	0.0001896
3935.12	0.000147
3944.76	0.00022896
3954.41	6.6e-05
3964.05	1e-05
3973.69	0.0003059
3983.34	0.00029466
3992.98	0.0001204
