Infrared Spectrum: Pyridine, 4-ethyl-, hydrochloride
Formula: C7 H10 Cl N
CAS: 86018-00-0
State: SOLID (KBr DISC, 0.9% WT.)
Class: COBLENTZ III
Instrument: PERKIN-ELMER 157
Sampling: TRANSMISSION
Resolution: 2
Origin: BRITISH PETROLEUM CO. LTD., ENGLAND
1/CM	TRANSMITTANCE
668	1.0187
677	0.9877
686	0.9445
695	0.8942
704	0.915
713	0.8763
722	0.7897
731	0.7937
740	0.7971
749	0.7325
758	0.5357
767	0.371
776	0.4337
785	0.6008
794	0.5313
803	0.4474
812	0.2106
821	0.0339
830	0.038
839	0.2151
848	0.5486
857	0.6643
866	0.6679
875	0.7188
884	0.7306
893	0.737
902	0.7374
911	0.7213
920	0.7116
929	0.6641
938	0.5871
947	0.437
956	0.6551
965	0.6589
974	0.6419
983	0.598
992	0.557
1001	0.3927
1010	0.5358
1019	0.6161
1028	0.4601
1037	0.3997
1046	0.4012
1055	0.4007
1064	0.5479
1073	0.6341
1082	0.6262
1091	0.6166
1100	0.5802
1109	0.5078
1118	0.5836
1127	0.6261
1136	0.6259
1145	0.6195
1154	0.5991
1163	0.5681
1172	0.5284
1181	0.4594
1190	0.2394
1199	0.312
1208	0.5504
1217	0.555
1226	0.5071
1235	0.4672
1244	0.4076
1253	0.4553
1262	0.5456
1271	0.5429
1280	0.5078
1289	0.4585
1298	0.398
1307	0.3675
1316	0.2415
1325	0.2207
1334	0.3606
1343	0.3466
1352	0.3477
1361	0.265
1370	0.2715
1379	0.4029
1388	0.4181
1397	0.4242
1406	0.3635
1415	0.3249
1424	0.4031
1433	0.3804
1442	0.3269
1451	0.1862
1460	0.2349
1469	0.3264
1478	0.3067
1487	0.1472
1496	0.0353
1505	0.0538
1514	0.2681
1523	0.431
1532	0.4443
1541	0.4399
1550	0.4277
1559	0.413
1568	0.3896
1577	0.331
1586	0.2053
1595	0.0346
1604	0.0865
1613	0.161
1622	0.071
1631	0.0855
1640	0.2723
1649	0.4918
1658	0.5306
1667	0.5348
1676	0.5351
1685	0.5321
1694	0.5313
1703	0.5321
1712	0.532
1721	0.5249
1730	0.5055
1739	0.4847
1748	0.4543
1757	0.4158
1766	0.4262
1775	0.4704
1784	0.4822
1793	0.4814
1802	0.4723
1811	0.4599
1820	0.4374
1829	0.4086
1838	0.34
1847	0.2958
1856	0.3088
1865	0.3158
1874	0.2931
1883	0.2856
1892	0.3447
1901	0.3695
1910	0.3343
1919	0.3121
1928	0.3022
1937	0.2694
1946	0.237
1955	0.1662
1964	0.1162
1973	0.168
1982	0.2462
1991	0.267
2000	0.2674
2009	0.2631
2018	0.2526
2027	0.2275
2036	0.2048
2045	0.1508
2054	0.1096
2063	0.1327
2072	0.2117
2081	0.2463
2090	0.2541
2099	0.2829
2108	0.2964
2117	0.3106
2126	0.3096
2135	0.3071
2144	0.303
2153	0.3004
2162	0.3006
2171	0.2953
2180	0.2871
2189	0.2798
2198	0.27
2207	0.2585
2216	0.2445
2225	0.2242
2234	0.2104
2243	0.2082
2252	0.2116
2261	0.2101
2270	0.1999
2279	0.19
2288	0.1821
2297	0.1601
2306	0.1393
2315	0.1192
2324	0.1022
2333	0.0897
2342	0.0794
2351	0.0709
2360	0.0633
2369	0.0568
2378	0.0496
2387	0.0415
2396	0.0331
2405	0.025
2414	0.0173
2423	0.0137
2432	0.0132
2441	0.0103
2450	0.0061
2459	0.0054
2468	0.0053
2477	0.0053
2486	0.0051
2495	0.005
2504	0.005
2513	0.0052
2522	0.0053
2531	0.0055
2540	0.0057
2549	0.0059
2558	0.0066
2567	0.0073
2576	0.0091
2585	0.0117
2594	0.0123
2603	0.0124
2612	0.0123
2621	0.0125
2630	0.0142
2639	0.0197
2648	0.023
2657	0.023
2666	0.0227
2675	0.0224
2684	0.0224
2693	0.0229
2702	0.0237
2711	0.0251
2720	0.0265
2729	0.028
2738	0.03
2747	0.0321
2756	0.0354
2765	0.0406
2774	0.0466
2783	0.0525
2792	0.0586
2801	0.0629
2810	0.0664
2819	0.0696
2828	0.0718
2837	0.0724
2846	0.0726
2855	0.0724
2864	0.0719
2873	0.0712
2882	0.0695
2891	0.0667
2900	0.0633
2909	0.061
2918	0.06
2927	0.0599
2936	0.0596
2945	0.0628
2954	0.0689
2963	0.0805
2972	0.088
2981	0.0858
2990	0.0742
2999	0.0626
3008	0.0543
3017	0.0634
3026	0.1247
3035	0.1874
3044	0.2184
3053	0.2204
3062	0.224
3071	0.2326
3080	0.2433
3089	0.2464
3098	0.2477
3107	0.2603
3116	0.2679
3125	0.2651
3134	0.2612
3143	0.2523
3152	0.2472
3161	0.2473
3170	0.2494
3179	0.2665
3188	0.2809
3197	0.2805
3206	0.2793
3215	0.2776
3224	0.2749
3233	0.272
3242	0.2677
3251	0.2622
3260	0.2566
3269	0.2506
3278	0.2432
3287	0.233
3296	0.2259
3305	0.2195
3314	0.2131
3323	0.2066
3332	0.2021
3341	0.1991
3350	0.198
3359	0.1972
3368	0.1966
3377	0.1965
3386	0.1963
3395	0.1962
3404	0.1961
3413	0.1962
3422	0.1962
3431	0.1967
3440	0.1974
3449	0.1986
3458	0.2024
3467	0.2085
3476	0.2187
3485	0.2206
3494	0.2215
3503	0.2297
3512	0.2503
3521	0.2583
3530	0.266
3539	0.2723
3548	0.2784
3557	0.2823
3566	0.2834
3575	0.2835
3584	0.2833
3593	0.2832
3602	0.2831
3611	0.2826
3620	0.2821
3629	0.2804
3638	0.2779
3647	0.2749
3656	0.2721
3665	0.271
3674	0.2703
3683	0.2697
3692	0.269
3701	0.2683
3710	0.2679
3719	0.2678
3728	0.2678
3737	0.2678
3746	0.2677
3755	0.2677
3764	0.2675
3773	0.2669
3782	0.2664
3791	0.2606
3800	0.2537
3809	0.2496
3818	0.2492
3827	0.2489
3836	0.2485
3845	0.2474
3854	0.2459
3863	0.2422
3872	0.2385
3881	0.2349
3890	0.2326
3899	0.2308
3908	0.2291
3917	0.2284
3926	0.228
3935	0.2278
3944	0.2275
3953	0.2272
3962	0.2269
3971	0.2267
3980	0.2264
3989	0.2261
3998	0.2259
