Infrared Spectrum: ISOBUTYRIC ACID, ISOBUTENYL ESTER
Formula: C8 H14 O2
CAS: 86123-20-8
Boiling point: 154-155 C
Class: COBLENTZ
Instrument: Not specified, most likely a prism, grating, or hybrid spectrometer.
Sampling: TRANSMISSION
Path length: SMEAR
Resolution: 4
Origin: TENNESSEE EASTMAN COMPANY, RESEARCH LABORATORIES
MICROMETERS	TRANSMITTANCE
2.062	0.933
2.10306	0.933
2.14411	0.933
2.18517	0.933
2.22622	0.931
2.26728	0.928
2.30833	0.909
2.34939	0.897
2.39045	0.9
2.4315	0.911
2.47256	0.909
2.51361	0.911
2.55467	0.917
2.59572	0.921
2.63678	0.921
2.67784	0.923
2.71889	0.923
2.75995	0.919
2.801	0.912
2.84206	0.902
2.88312	0.895
2.92417	0.852
2.96523	0.852
3.00628	0.834
3.04734	0.815
3.08839	0.811
3.12945	0.81
3.17051	0.813
3.21156	0.808
3.25262	0.786
3.29367	0.683
3.33473	0.741
3.37578	0.358
3.41684	0.338
3.4579	0.389
3.49895	0.42
3.54001	0.711
3.58106	0.796
3.62212	0.839
3.66317	0.841
3.70423	0.822
3.74529	0.858
3.78634	0.866
3.8274	0.866
3.86845	0.871
3.90951	0.883
3.95056	0.89
3.99162	0.888
4.03268	0.899
4.07373	0.909
4.11479	0.916
4.15584	0.917
4.1969	0.921
4.23796	0.923
4.27901	0.931
4.32007	0.921
4.36112	0.919
4.40218	0.923
4.44323	0.923
4.48429	0.919
4.52535	0.921
4.5664	0.929
4.60746	0.921
4.64851	0.919
4.68957	0.924
4.73062	0.924
4.77168	0.929
4.81274	0.929
4.85379	0.923
4.89485	0.928
4.9359	0.933
4.97696	0.936
5.01801	0.948
5.05907	0.948
5.10013	0.941
5.14118	0.941
5.18224	0.943
5.22329	0.947
5.26435	0.945
5.3054	0.945
5.34646	0.941
5.38752	0.933
5.42857	0.911
5.46963	0.902
5.51068	0.887
5.55174	0.858
5.5928	0.811
5.63385	0.719
5.67491	0.567
5.71596	0.082
5.75702	0.052
5.79807	0.174
5.83913	0.295
5.88019	0.341
5.92124	0.376
5.9623	0.494
6.00335	0.721
6.04441	0.801
6.08546	0.822
6.12652	0.83
6.16758	0.829
6.20863	0.832
6.24969	0.847
6.29074	0.868
6.3318	0.887
6.37285	0.892
6.41391	0.888
6.45497	0.871
6.49602	0.875
6.53708	0.864
6.57813	0.858
6.61919	0.837
6.66024	0.81
6.7013	0.786
6.74236	0.683
6.78341	0.473
6.82447	0.321
6.86552	0.4
6.90658	0.393
6.94764	0.505
6.98869	0.634
7.02975	0.69
7.0708	0.717
7.11186	0.724
7.15291	0.714
7.19397	0.523
7.23503	0.3
7.27608	0.367
7.31714	0.504
7.35819	0.55
7.39925	0.523
7.4403	0.425
7.48136	0.523
7.52242	0.6
7.56347	0.538
7.60453	0.613
7.64558	0.692
7.68664	0.721
7.72769	0.683
7.76875	0.668
7.80981	0.692
7.85086	0.694
7.89192	0.618
7.93297	0.536
7.97403	0.391
8.01508	0.22
8.05614	0.188
8.0972	0.23
8.13825	0.273
8.17931	0.307
8.22036	0.37
8.26142	0.347
8.30248	0.275
8.34353	0.188
8.38459	0.114
8.42564	0.071
8.4667	0.099
8.50775	0.158
8.54881	0.117
8.58987	0.049
8.63092	0.03
8.67198	0.029
8.71303	0.029
8.75409	0.042
8.79514	0.073
8.8362	0.1
8.87726	0.104
8.91831	0.104
8.95937	0.133
9.00042	0.174
9.04148	0.217
9.08253	0.2
9.12359	0.27
9.16465	0.4
9.2057	0.488
9.24676	0.553
9.28781	0.576
9.32887	0.582
9.36992	0.57
9.41098	0.545
9.45204	0.576
9.49309	0.646
9.53415	0.705
9.5752	0.738
9.61626	0.755
9.65732	0.765
9.69837	0.765
9.73943	0.729
9.78048	0.704
9.82154	0.728
9.86259	0.74
9.90365	0.753
9.94471	0.793
9.98576	0.806
10.0268	0.817
10.0679	0.813
10.1089	0.8
10.15	0.772
10.191	0.769
10.2321	0.791
10.2732	0.801
10.3142	0.789
10.3553	0.748
10.3963	0.728
10.4374	0.736
10.4784	0.781
10.5195	0.796
10.5605	0.803
10.6016	0.803
10.6427	0.8
10.6837	0.781
10.7248	0.74
10.7658	0.663
10.8069	0.57
10.8479	0.56
10.889	0.666
10.93	0.752
10.9711	0.791
11.0122	0.81
11.0532	0.832
11.0943	0.856
11.1353	0.868
11.1764	0.875
11.2174	0.882
11.2585	0.885
11.2995	0.885
11.3406	0.883
11.3817	0.883
11.4227	0.873
11.4638	0.852
11.5048	0.813
11.5459	0.801
11.5869	0.832
11.628	0.858
11.669	0.868
11.7101	0.87
11.7512	0.871
11.7922	0.873
11.8333	0.871
11.8743	0.866
11.9154	0.854
11.9564	0.841
11.9975	0.825
12.0385	0.791
12.0796	0.767
12.1207	0.721
12.1617	0.673
12.2028	0.627
12.2438	0.596
12.2849	0.582
12.3259	0.581
12.367	0.576
12.4081	0.57
12.4491	0.605
12.4902	0.656
12.5312	0.7
12.5723	0.736
12.6133	0.769
12.6544	0.784
12.6954	0.796
12.7365	0.808
12.7776	0.82
12.8186	0.827
12.8597	0.835
12.9007	0.841
12.9418	0.844
12.9828	0.844
13.0239	0.846
13.0649	0.839
13.106	0.82
13.1471	0.798
13.1881	0.765
13.2292	0.731
13.2702	0.711
13.3113	0.694
13.3523	0.685
13.3934	0.687
13.4344	0.702
13.4755	0.74
13.5166	0.774
13.5576	0.801
13.5987	0.823
13.6397	0.837
13.6808	0.844
13.7218	0.849
13.7629	0.852
13.8039	0.856
13.845	0.859
13.8861	0.859
13.9271	0.861
13.9682	0.861
14.0092	0.861
14.0503	0.861
14.0913	0.861
14.1324	0.861
14.1734	0.859
14.2145	0.859
14.2556	0.854
14.2966	0.852
14.3377	0.852
14.3787	0.849
14.4198	0.846
14.4608	0.846
14.5019	0.839
14.543	0.834
14.584	0.834
14.6251	0.829
14.6661	0.823
14.7072	0.818
14.7482	0.815
14.7893	0.811
14.8303	0.808
14.8714	0.803
14.9125	0.798
14.9535	0.791
14.9946	0.781
15.0356	0.774
15.0767	0.772
15.1177	0.767
15.1588	0.764
15.1998	0.757
15.2409	0.748
15.282	0.741
15.323	0.735
15.3641	0.731
15.4051	0.728
15.4462	0.721
15.4872	0.717
15.5283	0.716
15.5693	0.711
15.6104	0.707
15.6515	0.7
15.6925	0.694
15.7336	0.692
15.7746	0.69
15.8157	0.685
15.8567	0.682
15.8978	0.68
15.9388	0.678
15.9799	0.678
16.021	0.675
