Infrared Spectrum: 2,4-THIAZOLIDINEDIONE, 5-CYCLOHEXYLIDENE-
Formula: C9 H11 N O2 S
CAS: 86199-39-5
State: SOLID (KBr PELLET)
Melting point: 146-148 C
Class: COBLENTZ
Instrument: Not specified, most likely a prism, grating, or hybrid spectrometer.
Sampling: TRANSMISSION
Resolution: 4
Origin: TENNESSEE EASTMAN COMPANY, RESEARCH LABORATORIES
MICROMETERS	TRANSMITTANCE
2	0.759
2.04094	0.765
2.08189	0.768
2.12283	0.775
2.16378	0.79
2.20472	0.799
2.24566	0.806
2.28661	0.809
2.32755	0.814
2.3685	0.818
2.40944	0.823
2.45038	0.825
2.49133	0.83
2.53227	0.831
2.57322	0.83
2.61416	0.83
2.65511	0.83
2.69605	0.83
2.73699	0.826
2.77794	0.801
2.81888	0.795
2.85983	0.783
2.90077	0.765
2.94171	0.759
2.98266	0.775
3.0236	0.785
3.06455	0.684
3.10549	0.521
3.14643	0.295
3.18738	0.361
3.22832	0.506
3.26927	0.459
3.31021	0.66
3.35115	0.718
3.3921	0.492
3.43304	0.754
3.47399	0.689
3.51493	0.838
3.55587	0.813
3.59682	0.758
3.63776	0.883
3.67871	0.912
3.71965	0.926
3.7606	0.936
3.80154	0.946
3.84248	0.95
3.88343	0.95
3.92437	0.955
3.96532	0.957
4.00626	0.957
4.0472	0.958
4.08815	0.96
4.12909	0.962
4.17004	0.962
4.21098	0.963
4.25192	0.948
4.29287	0.939
4.33381	0.945
4.37476	0.96
4.4157	0.975
4.45664	0.977
4.49759	0.979
4.53853	0.986
4.57948	0.989
4.62042	0.989
4.66136	0.989
4.70231	0.991
4.74325	0.994
4.7842	0.994
4.82514	0.994
4.86608	0.993
4.90703	0.993
4.94797	0.998
4.98892	1
5.02986	1.001
5.07081	1.001
5.11175	1.001
5.15269	1.001
5.19364	1.001
5.23458	0.991
5.27553	0.993
5.31647	0.994
5.35741	0.996
5.39836	0.993
5.4393	0.989
5.48025	0.989
5.52119	0.963
5.56213	0.91
5.60308	0.783
5.64402	0.711
5.68497	0.759
5.72591	0.54
5.76685	0.032
5.8078	0.2
5.84874	0.411
5.88969	0.039
5.93063	0.063
5.97157	0.065
6.01252	0.355
6.05346	0.622
6.09441	0.744
6.13535	0.73
6.1763	0.572
6.21724	0.331
6.25818	0.759
6.29913	0.825
6.34007	0.876
6.38102	0.893
6.42196	0.902
6.4629	0.91
6.50385	0.924
6.54479	0.912
6.58574	0.926
6.62668	0.95
6.66762	0.955
6.70857	0.958
6.74951	0.953
6.79046	0.905
6.8314	0.885
6.87234	0.679
6.91329	0.716
6.95423	0.881
6.99518	0.931
7.03612	0.927
7.07706	0.857
7.11801	0.823
7.15895	0.857
7.1999	0.922
7.24084	0.933
7.28179	0.938
7.32273	0.914
7.36367	0.785
7.40462	0.631
7.44556	0.802
7.48651	0.595
7.52745	0.219
7.56839	0.488
7.60934	0.624
7.65028	0.557
7.69123	0.67
7.73217	0.873
7.77311	0.943
7.81406	0.914
7.855	0.879
7.89595	0.946
7.93689	0.849
7.97783	0.802
8.01878	0.874
8.05972	0.919
8.10067	0.953
8.14161	0.898
8.18255	0.96
8.2235	0.972
8.26444	0.974
8.30539	0.96
8.34633	0.955
8.38727	0.938
8.42822	0.902
8.46916	0.814
8.51011	0.653
8.55105	0.166
8.592	0.173
8.63294	0.495
8.67388	0.735
8.71483	0.807
8.75577	0.84
8.79672	0.785
8.83766	0.716
8.8786	0.778
8.91955	0.807
8.96049	0.749
9.00144	0.656
9.04238	0.737
9.08332	0.828
9.12427	0.845
9.16521	0.799
9.20616	0.819
9.2471	0.833
9.28804	0.847
9.32899	0.864
9.36993	0.873
9.41088	0.876
9.45182	0.876
9.49276	0.879
9.53371	0.881
9.57465	0.883
9.6156	0.881
9.65654	0.881
9.69749	0.847
9.73843	0.823
9.77937	0.855
9.82032	0.855
9.86126	0.857
9.90221	0.857
9.94315	0.857
9.98409	0.857
10.025	0.85
10.066	0.77
10.1069	0.651
10.1479	0.734
10.1888	0.816
10.2298	0.845
10.2707	0.855
10.3116	0.867
10.3526	0.873
10.3935	0.876
10.4345	0.876
10.4754	0.878
10.5164	0.885
10.5573	0.885
10.5983	0.885
10.6392	0.885
10.6801	0.885
10.7211	0.885
10.762	0.885
10.803	0.885
10.8439	0.885
10.8849	0.89
10.9258	0.891
10.9668	0.89
11.0077	0.891
11.0486	0.876
11.0896	0.84
11.1305	0.842
11.1715	0.855
11.2124	0.831
11.2534	0.71
11.2943	0.694
11.3352	0.795
11.3762	0.831
11.4171	0.85
11.4581	0.852
11.499	0.855
11.54	0.857
11.5809	0.825
11.6219	0.711
11.6628	0.718
11.7037	0.826
11.7447	0.849
11.7856	0.852
11.8266	0.852
11.8675	0.852
11.9085	0.849
11.9494	0.838
11.9904	0.831
12.0313	0.823
12.0722	0.813
12.1132	0.804
12.1541	0.78
12.1951	0.761
12.236	0.756
12.277	0.747
12.3179	0.732
12.3588	0.728
12.3998	0.725
12.4407	0.725
12.4817	0.734
12.5226	0.734
12.5636	0.723
12.6045	0.718
12.6455	0.718
12.6864	0.715
12.7273	0.703
12.7683	0.696
12.8092	0.694
12.8502	0.692
12.8911	0.692
12.9321	0.694
12.973	0.694
13.014	0.686
13.0549	0.639
13.0958	0.67
13.1368	0.795
13.1777	0.837
13.2187	0.842
13.2596	0.843
13.3006	0.842
13.3415	0.842
13.3825	0.842
13.4234	0.837
13.4643	0.828
13.5053	0.809
13.5462	0.783
13.5872	0.735
13.6281	0.703
13.6691	0.742
13.71	0.797
13.7509	0.837
13.7919	0.85
13.8328	0.857
13.8738	0.866
13.9147	0.874
13.9557	0.885
13.9966	0.89
14.0376	0.893
14.0785	0.897
14.1194	0.902
14.1604	0.903
14.2013	0.905
14.2423	0.909
14.2832	0.91
14.3242	0.912
14.3651	0.912
14.4061	0.914
14.447	0.914
14.4879	0.912
14.5289	0.907
14.5698	0.905
14.6108	0.888
14.6517	0.866
14.6927	0.833
14.7336	0.777
14.7745	0.698
14.8155	0.591
14.8564	0.509
14.8974	0.471
14.9383	0.495
14.9793	0.617
15.0202	0.753
15.0612	0.818
15.1021	0.85
15.143	0.864
15.184	0.871
15.2249	0.869
15.2659	0.871
15.3068	0.871
15.3478	0.869
15.3887	0.866
15.4297	0.861
15.4706	0.852
15.5115	0.852
15.5525	0.845
15.5934	0.835
15.6344	0.831
15.6753	0.823
15.7163	0.806
15.7572	0.794
15.7982	0.77
15.8391	0.759
15.88	0.749
15.921	0.727
15.9619	0.701
