Infrared Spectrum: TRANS-1,4-CYCLOHEXANE-DIMETHANOL DIFORMATE
Formula: C10 H16 O4
CAS: 86218-05-5
State: SOLID (PELLET)
Boiling point: 61.5-62 C
Class: COBLENTZ
Instrument: Not specified, most likely a prism, grating, or hybrid spectrometer.
Sampling: TRANSMISSION
Resolution: 4
Origin: TENNESSEE EASTMAN COMPANY, RESEARCH LABORATORIES
MICROMETERS	TRANSMITTANCE
2.02	0.754
2.05973	0.768
2.09947	0.783
2.1392	0.788
2.17894	0.801
2.21867	0.804
2.25841	0.807
2.29814	0.809
2.33787	0.814
2.37761	0.819
2.41734	0.819
2.45708	0.826
2.49681	0.834
2.53655	0.846
2.57628	0.847
2.61602	0.849
2.65575	0.85
2.69548	0.854
2.73522	0.855
2.77495	0.855
2.81469	0.854
2.85442	0.849
2.89416	0.842
2.93389	0.807
2.97362	0.834
3.01336	0.859
3.05309	0.865
3.09283	0.87
3.13256	0.882
3.1723	0.887
3.21203	0.889
3.25176	0.889
3.2915	0.887
3.33123	0.836
3.37097	0.62
3.4107	0.218
3.45044	0.533
3.49017	0.451
3.52991	0.86
3.56964	0.889
3.60937	0.918
3.64911	0.92
3.68884	0.927
3.72858	0.93
3.76831	0.93
3.80805	0.935
3.84778	0.942
3.88751	0.943
3.92725	0.947
3.96698	0.948
4.00672	0.95
4.04645	0.951
4.08619	0.95
4.12592	0.955
4.16565	0.955
4.20539	0.95
4.24512	0.95
4.28486	0.912
4.32459	0.913
4.36433	0.942
4.40406	0.958
4.4438	0.961
4.48353	0.965
4.52326	0.966
4.563	0.968
4.60273	0.966
4.64247	0.966
4.6822	0.956
4.72194	0.945
4.76167	0.945
4.8014	0.945
4.84114	0.958
4.88087	0.963
4.92061	0.968
4.96034	0.973
5.00008	0.985
5.03981	0.973
5.07954	0.971
5.11928	0.971
5.15901	0.973
5.19875	0.973
5.23848	0.975
5.27822	0.971
5.31795	0.963
5.35769	0.951
5.39742	0.953
5.43715	0.94
5.47689	0.93
5.51662	0.918
5.55636	0.885
5.59609	0.855
5.63583	0.819
5.67556	0.753
5.71529	0.605
5.75503	0.155
5.79476	0.028
5.8345	0.061
5.87423	0.278
5.91397	0.685
5.9537	0.748
5.99343	0.783
6.03317	0.867
6.0729	0.869
6.11264	0.889
6.15237	0.915
6.19211	0.923
6.23184	0.951
6.27157	0.956
6.31131	0.963
6.35104	0.958
6.39078	0.955
6.43051	0.953
6.47025	0.938
6.50998	0.948
6.54972	0.943
6.58945	0.95
6.62918	0.948
6.66892	0.951
6.70865	0.895
6.74839	0.806
6.78812	0.806
6.82786	0.481
6.86759	0.72
6.90732	0.865
6.94706	0.923
6.98679	0.943
7.02653	0.94
7.06626	0.928
7.106	0.822
7.14573	0.872
7.18546	0.816
7.2252	0.713
7.26493	0.667
7.30467	0.837
7.3444	0.884
7.38414	0.897
7.42387	0.894
7.46361	0.937
7.50334	0.94
7.54307	0.942
7.58281	0.922
7.62254	0.895
7.66228	0.91
7.70201	0.865
7.74175	0.86
7.78148	0.862
7.82121	0.834
7.86095	0.74
7.90068	0.793
7.94042	0.788
7.98015	0.745
8.01989	0.629
8.05962	0.534
8.09935	0.49
8.13909	0.334
8.17882	0.115
8.21856	0.056
8.25829	0.048
8.29803	0.036
8.33776	0.034
8.3775	0.036
8.41723	0.049
8.45696	0.112
8.4967	0.261
8.53643	0.463
8.57617	0.566
8.6159	0.653
8.65564	0.639
8.69537	0.708
8.7351	0.786
8.77484	0.821
8.81457	0.819
8.85431	0.816
8.89404	0.852
8.93378	0.869
8.97351	0.877
9.01324	0.885
9.05298	0.894
9.09271	0.892
9.13245	0.903
9.17218	0.913
9.21192	0.923
9.25165	0.928
9.29139	0.928
9.33112	0.933
9.37085	0.933
9.41059	0.933
9.45032	0.938
9.49006	0.94
9.52979	0.943
9.56953	0.943
9.60926	0.942
9.64899	0.938
9.68873	0.938
9.72846	0.94
9.7682	0.935
9.80793	0.872
9.84767	0.86
9.8874	0.923
9.92713	0.94
9.96687	0.945
10.0066	0.945
10.0463	0.945
10.0861	0.945
10.1258	0.945
10.1655	0.943
10.2053	0.942
10.245	0.937
10.2847	0.865
10.3245	0.774
10.3642	0.844
10.4039	0.885
10.4437	0.852
10.4834	0.665
10.5231	0.314
10.5629	0.306
10.6026	0.67
10.6424	0.812
10.6821	0.842
10.7218	0.842
10.7616	0.842
10.8013	0.855
10.841	0.736
10.8808	0.703
10.9205	0.73
10.9602	0.854
11	0.927
11.0397	0.93
11.0794	0.889
11.1192	0.672
11.1589	0.44
11.1986	0.329
11.2384	0.605
11.2781	0.842
11.3178	0.9
11.3576	0.938
11.3973	0.948
11.437	0.958
11.4768	0.961
11.5165	0.971
11.5562	0.973
11.596	0.976
11.6357	0.98
11.6754	0.983
11.7152	0.983
11.7549	0.983
11.7946	0.981
11.8344	0.948
11.8741	0.882
11.9139	0.867
11.9536	0.932
11.9933	0.966
12.0331	0.978
12.0728	0.983
12.1125	0.988
12.1523	0.991
12.192	0.995
12.2317	0.995
12.2715	0.993
12.3112	0.991
12.3509	0.98
12.3907	0.98
12.4304	0.988
12.4701	0.991
12.5099	0.991
12.5496	0.991
12.5893	0.988
12.6291	0.963
12.6688	0.915
12.7085	0.817
12.7483	0.847
12.788	0.935
12.8277	0.963
12.8675	0.973
12.9072	0.976
12.9469	0.98
12.9867	0.978
13.0264	0.98
13.0661	0.981
13.1059	0.981
13.1456	0.983
13.1854	0.988
13.2251	0.99
13.2648	0.991
13.3046	0.995
13.3443	0.998
13.384	0.998
13.4238	0.998
13.4635	0.998
13.5032	0.995
13.543	0.996
13.5827	0.996
13.6224	0.996
13.6622	0.995
13.7019	0.995
13.7416	0.996
13.7814	0.998
13.8211	0.998
13.8608	0.998
13.9006	0.998
13.9403	0.998
13.98	0.996
14.0198	0.996
14.0595	0.998
14.0992	0.998
14.139	0.996
14.1787	0.996
14.2184	0.996
14.2582	0.998
14.2979	0.998
14.3376	0.998
14.3774	0.998
14.4171	0.998
14.4569	0.998
14.4966	0.998
14.5363	0.996
14.5761	0.998
14.6158	1
14.6555	1.001
14.6953	1.003
14.735	1.003
14.7747	1.004
14.8145	1.004
14.8542	1.006
14.8939	1.006
14.9337	1.001
14.9734	0.993
15.0131	0.981
15.0529	0.98
15.0926	0.983
15.1323	0.983
15.1721	0.983
15.2118	0.98
15.2515	0.975
15.2913	0.968
15.331	0.961
15.3707	0.942
15.4105	0.937
15.4502	0.925
15.4899	0.918
15.5297	0.908
15.5694	0.903
15.6091	0.9
15.6489	0.889
15.6886	0.875
15.7283	0.869
15.7681	0.857
15.8078	0.839
15.8476	0.826
15.8873	0.816
15.927	0.804
15.9668	0.798
