Infrared Spectrum: 5-CYANO-5-METHYL-2-PYRROLIDONE
Formula: C6 H8 N2 O
CAS: 86240-21-3
State: SOLUTION (7% CHCl3)
Class: COBLENTZ
Instrument: Not specified, most likely a grating spectrometer.
Sampling: TRANSMISSION
Path length: 0.010 CM
Resolution: 4
Origin: ABBOTT LABORATORIES
MICROMETERS	TRANSMITTANCE
1.973	0.983
2.00689	0.98
2.04078	0.978
2.07467	0.976
2.10856	0.973
2.14244	0.971
2.17633	0.968
2.21022	0.968
2.24411	0.966
2.278	0.963
2.31189	0.956
2.34578	0.953
2.37967	0.95
2.41356	0.943
2.44745	0.945
2.48133	0.95
2.51522	0.95
2.54911	0.95
2.583	0.951
2.61689	0.951
2.65078	0.951
2.68467	0.953
2.71856	0.948
2.75245	0.956
2.78634	0.948
2.82022	0.898
2.85411	0.876
2.888	0.853
2.92189	0.642
2.95578	0.62
2.98967	0.642
3.02356	0.589
3.05745	0.54
3.09134	0.452
3.12523	0.417
3.15911	0.419
3.193	0.489
3.22689	0.51
3.26078	0.51
3.29467	0.54
3.32856	0.51
3.36245	0.487
3.39634	0.61
3.43023	0.657
3.46411	0.69
3.498	0.687
3.53189	0.72
3.56578	0.765
3.59967	0.833
3.63356	0.855
3.66745	0.868
3.70134	0.873
3.73523	0.881
3.76912	0.891
3.803	0.898
3.83689	0.898
3.87078	0.898
3.90467	0.898
3.93856	0.898
3.97245	0.898
4.00634	0.898
4.04023	0.891
4.07412	0.878
4.10801	0.87
4.14189	0.866
4.17578	0.875
4.20967	0.898
4.24356	0.908
4.27745	0.916
4.31134	0.918
4.34523	0.915
4.37912	0.908
4.41301	0.903
4.4469	0.901
4.48078	0.89
4.51467	0.863
4.54856	0.896
4.58245	0.903
4.61634	0.905
4.65023	0.905
4.68412	0.906
4.71801	0.908
4.7519	0.908
4.78578	0.906
4.81967	0.91
4.85356	0.908
4.88745	0.908
4.92134	0.91
4.95523	0.91
4.98912	0.908
5.02301	0.905
5.0569	0.905
5.09079	0.9
5.12467	0.898
5.15856	0.9
5.19245	0.896
5.22634	0.893
5.26023	0.895
5.29412	0.893
5.32801	0.893
5.3619	0.891
5.39579	0.883
5.42968	0.868
5.46356	0.85
5.49745	0.838
5.53134	0.831
5.56523	0.818
5.59912	0.798
5.63301	0.757
5.6669	0.723
5.70079	0.597
5.73468	0.397
5.76856	0.184
5.80245	0.093
5.83634	0.013
5.87023	0.008
5.90412	0.009
5.93801	0.024
5.9719	0.224
6.00579	0.384
6.03968	0.492
6.07357	0.549
6.10745	0.643
6.14134	0.748
6.17523	0.778
6.20912	0.805
6.24301	0.825
6.2769	0.845
6.31079	0.846
6.34468	0.85
6.37857	0.853
6.41246	0.858
6.44634	0.86
6.48023	0.863
6.51412	0.866
6.54801	0.865
6.5819	0.87
6.61579	0.873
6.64968	0.865
6.68357	0.858
6.71746	0.846
6.75135	0.836
6.78523	0.818
6.81912	0.805
6.85301	0.708
6.8869	0.567
6.92079	0.485
6.95468	0.532
6.98857	0.595
7.02246	0.562
7.05635	0.46
7.09023	0.46
7.12412	0.457
7.15801	0.449
7.1919	0.432
7.22579	0.417
7.25968	0.281
7.29357	0.251
7.32746	0.515
7.36135	0.572
7.39524	0.55
7.42912	0.445
7.46301	0.396
7.4969	0.386
7.53079	0.386
7.56468	0.49
7.59857	0.599
7.63246	0.67
7.66635	0.68
7.70024	0.61
7.73413	0.432
7.76801	0.402
7.8019	0.485
7.83579	0.585
7.86968	0.617
7.90357	0.63
7.93746	0.643
7.97135	0.653
8.00524	0.64
8.03913	0.575
8.07302	0.479
8.1069	0.344
8.14079	0.227
8.17468	0.214
8.20857	0.221
8.24246	0.229
8.27635	0.241
8.31024	0.254
8.34413	0.274
8.37802	0.331
8.4119	0.464
8.44579	0.595
8.47968	0.647
8.51357	0.645
8.54746	0.512
8.58135	0.427
8.61524	0.507
8.64913	0.615
8.68302	0.708
8.71691	0.743
8.75079	0.75
8.78468	0.753
8.81857	0.733
8.85246	0.678
8.88635	0.627
8.92024	0.63
8.95413	0.683
8.98802	0.727
9.02191	0.75
9.0558	0.742
9.08968	0.685
9.12357	0.638
9.15746	0.7
9.19135	0.747
9.22524	0.762
9.25913	0.767
9.29302	0.783
9.32691	0.803
9.3608	0.846
9.39469	0.848
9.42857	0.858
9.46246	0.865
9.49635	0.875
9.53024	0.878
9.56413	0.875
9.59802	0.868
9.63191	0.865
9.6658	0.868
9.69969	0.881
9.73357	0.895
9.76746	0.906
9.80135	0.911
9.83524	0.901
9.86913	0.88
9.90302	0.851
9.93691	0.793
9.9708	0.778
10.0047	0.785
10.0386	0.803
10.0725	0.823
10.1064	0.835
10.1402	0.843
10.1741	0.845
10.208	0.851
10.2419	0.86
10.2758	0.861
10.3097	0.86
10.3436	0.855
10.3775	0.836
10.4114	0.83
10.4452	0.821
10.4791	0.821
10.513	0.826
10.5469	0.835
10.5808	0.845
10.6147	0.856
10.6486	0.861
10.6825	0.861
10.7164	0.861
10.7502	0.861
10.7841	0.863
10.818	0.856
10.8519	0.84
10.8858	0.806
10.9197	0.793
10.9536	0.79
10.9875	0.792
11.0214	0.803
11.0552	0.825
11.0891	0.831
11.123	0.838
11.1569	0.841
11.1908	0.841
11.2247	0.833
11.2586	0.825
11.2925	0.811
11.3264	0.803
11.3602	0.801
11.3941	0.805
11.428	0.808
11.4619	0.83
11.4958	0.841
11.5297	0.843
11.5636	0.845
11.5975	0.845
11.6314	0.845
11.6652	0.845
11.6991	0.845
11.733	0.845
11.7669	0.845
11.8008	0.845
11.8347	0.845
11.8686	0.84
11.9025	0.833
11.9364	0.813
11.9702	0.793
12.0041	0.778
12.038	0.757
12.0719	0.728
12.1058	0.687
12.1397	0.678
12.1736	0.683
12.2075	0.692
12.2414	0.702
12.2752	0.72
12.3091	0.733
12.343	0.742
12.3769	0.75
12.4108	0.752
12.4447	0.752
12.4786	0.755
12.5125	0.753
12.5464	0.76
12.5802	0.765
12.6141	0.767
12.648	0.765
12.6819	0.775
12.7158	0.78
12.7497	0.787
12.7836	0.792
12.8175	0.801
12.8514	0.811
12.8852	0.818
12.9191	0.821
12.953	0.828
12.9869	0.835
13.0208	0.838
13.0547	0.845
13.0886	0.85
13.1225	0.86
13.1564	0.861
13.1903	0.861
13.2241	0.866
13.258	0.871
13.2919	0.875
13.3258	0.875
13.3597	0.875
13.3936	0.885
13.4275	0.89
13.4614	0.891
13.4953	0.891
13.5291	0.901
13.563	0.906
13.5969	0.896
13.6308	0.898
13.6647	0.9
13.6986	0.916
13.7325	0.931
13.7664	0.943
13.8003	0.945
13.8341	0.943
13.868	0.941
13.9019	0.941
13.9358	0.938
13.9697	0.928
14.0036	0.916
14.0375	0.885
14.0714	0.851
14.1053	0.831
14.1391	0.805
14.173	0.78
14.2069	0.75
14.2408	0.73
14.2747	0.715
14.3086	0.71
14.3425	0.702
14.3764	0.695
14.4103	0.69
14.4441	0.69
14.478	0.69
14.5119	0.688
14.5458	0.688
14.5797	0.685
14.6136	0.683
14.6475	0.682
14.6814	0.683
14.7153	0.685
14.7491	0.69
14.783	0.697
14.8169	0.7
14.8508	0.707
14.8847	0.715
14.9186	0.727
14.9525	0.735
14.9864	0.738
15.0203	0.737
15.0541	0.733
15.088	0.71
15.1219	0.625
15.1558	0.577
15.1897	0.557
15.2236	0.55
15.2575	0.55
15.2914	0.555
15.3253	0.569
15.3591	0.58
15.393	0.59
15.4269	0.599
