Infrared Spectrum: ETHYL 4,5-DICHLORO-PENTANOATE
Formula: C7 H12 Cl2 O2
CAS: 86241-62-5
State: LIQUID
Class: COBLENTZ
Instrument: PERKIN-ELMER
Sampling: TRANSMISSION
Path length: CAPILLARY
Resolution: 4
Origin: ABBOTT LABORATORIES - WASHBURN
MICROMETERS	TRANSMITTANCE
2.033	0.894
2.073	0.896
2.113	0.8912
2.15301	0.9029
2.19301	0.9128
2.23301	0.914
2.27301	0.918
2.31301	0.9113
2.35302	0.906
2.39302	0.9137
2.43302	0.911
2.47302	0.914
2.51302	0.9161
2.55303	0.9209
2.59303	0.9178
2.63303	0.923
2.67303	0.924
2.71303	0.9179
2.75304	0.919
2.79304	0.9112
2.83304	0.908
2.87304	0.899
2.91304	0.892
2.95305	0.8819
2.99305	0.896
3.03305	0.909
3.07305	0.909
3.11305	0.913
3.15306	0.916
3.19306	0.913
3.23306	0.916
3.27306	0.916
3.31306	0.9061
3.35307	0.8093
3.39307	0.6014
3.43307	0.6671
3.47307	0.724
3.51307	0.8364
3.55308	0.8737
3.59308	0.9202
3.63308	0.933
3.67308	0.939
3.71308	0.939
3.75309	0.9378
3.79309	0.949
3.83309	0.939
3.87309	0.934
3.91309	0.926
3.9531	0.9242
3.9931	0.9231
4.0331	0.913
4.0731	0.908
4.1131	0.904
4.15311	0.9011
4.19311	0.8922
4.23311	0.887
4.27311	0.881
4.31311	0.882
4.35312	0.8741
4.39312	0.876
4.43312	0.871
4.47312	0.864
4.51312	0.861
4.55313	0.864
4.59313	0.8637
4.63313	0.857
4.67313	0.856
4.71313	0.851
4.75314	0.851
4.79314	0.8492
4.83314	0.847
4.87314	0.842
4.91314	0.839
4.95315	0.837
4.99315	0.8393
5.03315	0.8323
5.07315	0.841
5.11315	0.8397
5.15316	0.837
5.19316	0.842
5.23316	0.8396
5.27316	0.8368
5.31316	0.831
5.35317	0.8321
5.39317	0.827
5.43317	0.8304
5.47317	0.8248
5.51317	0.8201
5.55318	0.8083
5.59318	0.7963
5.63318	0.7764
5.67318	0.735
5.71318	0.6096
5.75319	0.2614
5.79319	0.085
5.83319	0.2309
5.87319	0.5845
5.91319	0.6986
5.9532	0.7302
5.9932	0.7676
6.0332	0.7852
6.0732	0.7949
6.1132	0.795
6.15321	0.807
6.19321	0.8078
6.23321	0.812
6.27321	0.8148
6.31321	0.819
6.35322	0.816
6.39322	0.821
6.43322	0.8158
6.47322	0.8196
6.51322	0.816
6.55323	0.819
6.59323	0.811
6.63323	0.8117
6.67323	0.817
6.71323	0.7949
6.75324	0.7791
6.79324	0.6794
6.83324	0.6598
6.87324	0.632
6.91324	0.6064
6.95325	0.4858
6.99325	0.4715
7.03325	0.5363
7.07325	0.561
7.11325	0.602
7.15326	0.6396
7.19326	0.6011
7.23326	0.5593
7.27326	0.4887
7.31326	0.4192
7.35327	0.5233
7.39327	0.6522
7.43327	0.5938
7.47327	0.568
7.51327	0.5827
7.55328	0.6416
7.59328	0.6161
7.63328	0.5288
7.67328	0.4559
7.71328	0.4075
7.75329	0.3934
7.79329	0.3995
7.83329	0.4428
7.87329	0.4515
7.91329	0.421
7.9533	0.4098
7.9933	0.4011
8.0333	0.3795
8.0733	0.3798
8.1133	0.3894
8.15331	0.403
8.19331	0.3927
8.23331	0.3492
8.27331	0.3083
8.31331	0.2756
8.35332	0.2497
8.39332	0.2384
8.43332	0.234
8.47332	0.2337
8.51332	0.2338
8.55333	0.2541
8.59333	0.2912
8.63333	0.3066
8.67333	0.318
8.71333	0.3297
8.75334	0.3692
8.79334	0.4519
8.83334	0.5567
8.87334	0.6424
8.91334	0.6825
8.95335	0.695
8.99335	0.6736
9.03335	0.645
9.07335	0.6425
9.11335	0.6209
9.15336	0.5891
9.19336	0.5958
9.23336	0.653
9.27336	0.6829
9.31336	0.7033
9.35337	0.6994
9.39337	0.6784
9.43337	0.6554
9.47337	0.6415
9.51337	0.628
9.55338	0.6165
9.59338	0.5803
9.63338	0.5294
9.67338	0.4834
9.71338	0.4684
9.75339	0.4709
9.79339	0.4804
9.83339	0.4965
9.87339	0.5588
9.91339	0.628
9.9534	0.6562
9.9934	0.6765
10.0334	0.7076
10.0734	0.7271
10.1134	0.74
10.1534	0.7465
10.1934	0.7642
10.2334	0.7758
10.2734	0.782
10.3134	0.7889
10.3534	0.7937
10.3934	0.795
10.4334	0.799
10.4734	0.799
10.5134	0.7932
10.5534	0.789
10.5934	0.784
10.6334	0.777
10.6734	0.7722
10.7134	0.762
10.7534	0.7556
10.7934	0.7479
10.8334	0.7357
10.8734	0.7247
10.9134	0.71
10.9534	0.707
10.9934	0.7238
11.0335	0.737
11.0735	0.744
11.1135	0.7513
11.1535	0.7635
11.1935	0.772
11.2335	0.7698
11.2735	0.7692
11.3135	0.7689
11.3535	0.7572
11.3935	0.759
11.4335	0.7543
11.4735	0.7531
11.5135	0.7545
11.5535	0.749
11.5935	0.7398
11.6335	0.7199
11.6735	0.6981
11.7135	0.6883
11.7535	0.6898
11.7935	0.7143
11.8335	0.739
11.8735	0.7511
11.9135	0.7561
11.9535	0.754
11.9935	0.7486
12.0335	0.7387
12.0735	0.729
12.1135	0.7298
12.1535	0.7384
12.1935	0.7474
12.2335	0.761
12.2735	0.7696
12.3135	0.764
12.3535	0.7549
12.3935	0.7439
12.4335	0.725
12.4735	0.722
12.5135	0.717
12.5535	0.719
12.5935	0.724
12.6335	0.724
12.6735	0.7196
12.7135	0.7272
12.7535	0.7389
12.7935	0.7495
12.8335	0.7615
12.8735	0.7696
12.9135	0.774
12.9535	0.7783
12.9935	0.778
13.0336	0.7687
13.0736	0.757
13.1136	0.7402
13.1536	0.7242
13.1936	0.703
13.2336	0.6773
13.2736	0.6624
13.3136	0.6561
13.3536	0.6493
13.3936	0.6378
13.4336	0.6268
13.4736	0.602
13.5136	0.5862
13.5536	0.568
13.5936	0.5673
13.6336	0.5741
13.6736	0.5876
13.7136	0.6123
13.7536	0.6272
13.7936	0.643
13.8336	0.6469
13.8736	0.648
13.9136	0.6464
13.9536	0.638
13.9936	0.6459
14.0336	0.6518
14.0736	0.6685
14.1136	0.6729
14.1536	0.683
14.1936	0.695
14.2336	0.6922
14.2736	0.695
14.3136	0.69
14.3536	0.69
14.3936	0.683
14.4336	0.68
14.4736	0.677
14.5136	0.67
14.5536	0.668
14.5936	0.6636
14.6336	0.665
14.6736	0.6608
14.7136	0.654
14.7536	0.653
14.7936	0.65
14.8336	0.6447
14.8736	0.638
14.9136	0.6183
14.9536	0.607
14.9936	0.5986
15.0337	0.5719
15.0737	0.5583
15.1137	0.55
15.1537	0.5564
15.1937	0.5651
15.2337	0.573
15.2737	0.58
15.3137	0.586
15.3537	0.596
