Infrared Spectrum: 3-(Trifluoromethoxy)benzoyl chloride
Formula: C 8 H 4 Cl F 3 O 2
CAS: 86270-03-3
State: gas
Origin: EPA-IR VAPOR PHASE LIBRARY
1/CM	ABSORBANCE
549.8	0.0010771
559.445	0.003156
569.09	0.002016
578.734	0.002806
588.379	0.002086
598.024	0.002416
607.669	0.003906
617.313	0.008286
626.958	0.022256
636.603	0.024536
646.248	0.014416
655.893	0.019446
665.537	0.042496
675.182	0.081526
684.827	0.063976
694.472	0.067526
704.116	0.043536
713.761	0.028116
723.406	0.017966
733.051	0.010836
742.695	0.007516
752.34	0.008056
761.985	0.011376
771.63	0.018886
781.275	0.049786
790.919	0.092346
800.564	0.086376
810.209	0.075746
819.854	0.064576
829.498	0.037456
839.143	0.016246
848.788	0.011036
858.433	0.011416
868.078	0.020006
877.722	0.041736
887.367	0.076106
897.012	0.079506
906.657	0.044326
916.301	0.021866
925.946	0.011816
935.591	0.007856
945.236	0.006936
954.88	0.007546
964.525	0.013116
974.17	0.023596
983.815	0.029836
993.46	0.040636
1003.1	0.029756
1012.75	0.012346
1022.39	0.007326
1032.04	0.006286
1041.68	0.005346
1051.33	0.006166
1060.97	0.006586
1070.62	0.007386
1080.26	0.009056
1089.91	0.009636
1099.55	0.011686
1109.2	0.016106
1118.84	0.021266
1128.49	0.037036
1138.13	0.088696
1147.78	0.140866
1157.42	0.111796
1167.07	0.118606
1176.71	0.171666
1186.36	0.281936
1196	0.352486
1205.64	0.392746
1215.29	0.573016
1224.93	0.510966
1234.58	0.311656
1244.22	0.312736
1253.87	0.372316
1263.51	0.551806
1273.16	0.612956
1282.8	0.334356
1292.45	0.161046
1302.09	0.090156
1311.74	0.048666
1321.38	0.034236
1331.03	0.024946
1340.67	0.018066
1350.32	0.012846
1359.96	0.009626
1369.61	0.007686
1379.25	0.006306
1388.9	0.006186
1398.54	0.006956
1408.18	0.008256
1417.83	0.013766
1427.47	0.031936
1437.12	0.053556
1446.76	0.027816
1456.41	0.014196
1466.05	0.015396
1475.7	0.030116
1485.34	0.046016
1494.99	0.024336
1504.63	0.010856
1514.28	0.008126
1523.92	0.007026
1533.57	0.006386
1543.21	0.006186
1552.86	0.006756
1562.5	0.008846
1572.15	0.015276
1581.79	0.031706
1591.44	0.035376
1601.08	0.023626
1610.73	0.014976
1620.37	0.008956
1630.01	0.006276
1639.66	0.004946
1649.3	0.004426
1658.95	0.004386
1668.59	0.004456
1678.24	0.004796
1687.88	0.005546
1697.53	0.007146
1707.17	0.008576
1716.82	0.009406
1726.46	0.011056
1736.11	0.016936
1745.75	0.025816
1755.4	0.051166
1765.04	0.115076
1774.69	0.166256
1784.33	0.151256
1793.98	0.106456
1803.62	0.060846
1813.27	0.033576
1822.91	0.021726
1832.55	0.013696
1842.2	0.008116
1851.84	0.006006
1861.49	0.005386
1871.13	0.004986
1880.78	0.004886
1890.42	0.005186
1900.07	0.004626
1909.71	0.003276
1919.36	0.003036
1929	0.003156
1938.65	0.003636
1948.29	0.003836
1957.94	0.003376
1967.58	0.002216
1977.23	0.002016
1986.87	0.002016
1996.52	0.002006
2006.16	0.002516
2015.81	0.002676
2025.45	0.002926
2035.1	0.002996
2044.74	0.002966
2054.38	0.002956
2064.03	0.002736
2073.67	0.002626
2083.32	0.002946
2092.96	0.002966
2102.61	0.003036
2112.25	0.003056
2121.9	0.002986
2131.54	0.002876
2141.19	0.002526
2150.83	0.002476
2160.48	0.002386
2170.12	0.002096
2179.77	0.001996
2189.41	0.0015169
2199.06	0.0012662
2208.7	0.0014014
2218.35	0.001435
2227.99	0.0013293
2237.64	0.0012782
2247.28	0.0013846
2256.92	0.0010343
2266.57	0.0014463
2276.21	0.0014089
2285.86	0.001696
2295.5	0.0012262
2305.15	0.0012421
2314.79	0.0015469
2324.44	0.0011216
2334.08	0.0014919
2343.73	0.001706
2353.37	0.001706
2363.02	0.001676
2372.66	0.0016016
2382.31	0.001896
2391.95	0.002256
2401.6	0.002296
2411.24	0.002756
2420.89	0.003526
2430.53	0.004086
2440.18	0.004276
2449.82	0.003906
2459.47	0.003726
2469.11	0.003756
2478.75	0.003936
2488.4	0.003426
2498.04	0.002696
2507.69	0.002526
2517.33	0.002186
2526.98	0.002336
2536.62	0.002656
2546.27	0.002446
2555.91	0.002236
2565.56	0.00127
2575.2	0.001706
2584.85	0.0015119
2594.49	0.0015703
2604.14	0.0013667
2613.78	0.0008939
2623.43	0.0008598
2633.07	0.0010936
2642.72	0.0008126
2652.36	0.0005654
2662.01	0.000648182
2671.65	0.00067152
2681.29	0.0008955
2690.94	0.000499
2700.58	0.0006145
2710.23	0.0007467
2719.87	0.0007763
2729.52	0.001188
2739.16	0.0014169
2748.81	0.0011333
2758.45	0.0010436
2768.1	0.0007986
2777.74	0.000468
2787.39	0.00074249
2797.03	0.000442
2806.68	0.000452
2816.32	0.0006262
2825.97	0.0012081
2835.61	0.0011143
2845.26	0.0012513
2854.9	0.0008282
2864.55	0.0009423
2874.19	0.0010051
2883.84	0.0009249
2893.48	0.0011893
2903.12	0.0007819
2912.77	0.00072204
2922.41	0.000466
2932.06	0.0010285
2941.7	0.000941
2951.35	0.0012227
2960.99	0.0011992
2970.64	0.001296
2980.28	0.0008918
2989.93	0.0010825
2999.57	0.0009737
3009.22	0.0008904
3018.86	0.0013272
3028.51	0.0014378
3038.15	0.001157
3047.8	0.001666
3057.44	0.002156
3067.09	0.002386
3076.73	0.005516
3086.38	0.009316
3096.02	0.006156
3105.67	0.002706
3115.31	0.001756
3124.95	0.0009657
3134.6	0.00071315
3144.24	0.00067043
3153.89	0.00073401
3163.53	0.0009791
3173.18	0.00063987
3182.82	0.00051
3192.47	0.0009226
3202.11	0.0008762
3211.76	0.0007572
3221.4	0.0007497
3231.05	0.0011465
3240.69	0.0007858
3250.34	0.000513
3259.98	0.0010644
3269.63	0.0006192
3279.27	7.5e-05
3288.92	0.0006282
3298.56	0.000393
3308.21	0.0009072
3317.85	0.000383
3327.49	0.000259
3337.14	0.0007948
3346.78	0.0005892
3356.43	0.0006222
3366.07	0.000813
3375.72	0.00064218
3385.36	0.0009376
3395.01	0.0011052
3404.65	0.0009494
3414.3	0.0008387
3423.94	0.000503
3433.59	0.0011945
3443.23	0.0012007
3452.88	0.0009718
3462.52	0.000418
3472.17	0.000756
3481.81	0.000842
3491.46	0.00044
3501.1	0.0010951
3510.75	0.002296
3520.39	0.002726
3530.04	0.003306
3539.68	0.003226
3549.32	0.002386
3558.97	0.001886
3568.61	0.0015015
3578.26	0.0011158
3587.9	0.0011989
3597.55	0.0009934
3607.19	0.0009557
3616.84	0.0010289
3626.48	0.0010934
3636.13	0.000528
3645.77	0.000207
3655.42	0.0009687
3665.06	0.00071484
3674.71	0.0009066
3684.35	0.0011177
3694	0.0005957
3703.64	0.00069736
3713.29	0.0012467
3722.93	0.0007474
3732.58	0.0007651
3742.22	0.000757
3751.86	0.001177
3761.51	0.0010126
3771.15	0.0012076
3780.8	0.0007844
3790.44	0.0006446
3800.09	0.000796
3809.73	0.0008588
3819.38	0.000477
3829.02	0.000254
3838.67	0.0009158
3848.31	0.00073473
3857.96	0.000838
3867.6	0.0007581
3877.25	0.0009987
3886.89	0.0011467
3896.54	0.0012129
3906.18	0.0014893
3915.83	0.0009623
3925.47	0.0007648
3935.12	0.000394
3944.76	0.0008595
3954.41	0.0009038
3964.05	0.00068714
3973.69	0.001515
3983.34	0.000511
3992.98	0.000416
