Infrared Spectrum: 3-Ethoxy-4-methoxyphenethylamine
Formula: C 11 H 17 N O 2
CAS: 86456-97-5
State: gas
Origin: EPA-IR VAPOR PHASE LIBRARY
1/CM	ABSORBANCE
549.8	0.004745
559.445	0.004285
569.09	0.004605
578.734	0.004645
588.379	0.005255
598.024	0.005695
607.669	0.005685
617.313	0.006225
626.958	0.007655
636.603	0.008375
646.248	0.007635
655.893	0.006195
665.537	0.006095
675.182	0.006565
684.827	0.007445
694.472	0.008975
704.116	0.010315
713.761	0.011465
723.406	0.014385
733.051	0.018805
742.695	0.022945
752.34	0.028235
761.985	0.032735
771.63	0.034825
781.275	0.034365
790.919	0.032405
800.564	0.029805
810.209	0.025615
819.854	0.020115
829.498	0.013235
839.143	0.010145
848.788	0.010175
858.433	0.010335
868.078	0.010325
877.722	0.010655
887.367	0.011095
897.012	0.009535
906.657	0.007535
916.301	0.006365
925.946	0.005925
935.591	0.006395
945.236	0.006995
954.88	0.008545
964.525	0.010085
974.17	0.010935
983.815	0.011515
993.46	0.014285
1003.1	0.020495
1012.75	0.033645
1022.39	0.052475
1032.04	0.064595
1041.68	0.066105
1051.33	0.048385
1060.97	0.032575
1070.62	0.026435
1080.26	0.020995
1089.91	0.019755
1099.55	0.019875
1109.2	0.027325
1118.84	0.043385
1128.49	0.055365
1138.13	0.052275
1147.78	0.045815
1157.42	0.039875
1167.07	0.029305
1176.71	0.022225
1186.36	0.019265
1196	0.017625
1205.64	0.026295
1215.29	0.045075
1224.93	0.061625
1234.58	0.062075
1244.22	0.060835
1253.87	0.085035
1263.51	0.128955
1273.16	0.129725
1282.8	0.086815
1292.45	0.055475
1302.09	0.039755
1311.74	0.027765
1321.38	0.020895
1331.03	0.018525
1340.67	0.016605
1350.32	0.015135
1359.96	0.015075
1369.61	0.015585
1379.25	0.022145
1388.9	0.028815
1398.54	0.022895
1408.18	0.019515
1417.83	0.026895
1427.47	0.027105
1437.12	0.027045
1446.76	0.030485
1456.41	0.022905
1466.05	0.024515
1475.7	0.028035
1485.34	0.035765
1494.99	0.066395
1504.63	0.125615
1514.28	0.108505
1523.92	0.042935
1533.57	0.019155
1543.21	0.012735
1552.86	0.011465
1562.5	0.013495
1572.15	0.019305
1581.79	0.022095
1591.44	0.017845
1601.08	0.017705
1610.73	0.018235
1620.37	0.014945
1630.01	0.011125
1639.66	0.007455
1649.3	0.005275
1658.95	0.003945
1668.59	0.003295
1678.24	0.002845
1687.88	0.002665
1697.53	0.002645
1707.17	0.002635
1716.82	0.002535
1726.46	0.002425
1736.11	0.002485
1745.75	0.002435
1755.4	0.002345
1765.04	0.002325
1774.69	0.002255
1784.33	0.002185
1793.98	0.002205
1803.62	0.002205
1813.27	0.002245
1822.91	0.002255
1832.55	0.002315
1842.2	0.002485
1851.84	0.002535
1861.49	0.002735
1871.13	0.002565
1880.78	0.002345
1890.42	0.002225
1900.07	0.002115
1909.71	0.001975
1919.36	0.001865
1929	0.001775
1938.65	0.001585
1948.29	0.001515
1957.94	0.001595
1967.58	0.001695
1977.23	0.001795
1986.87	0.001955
1996.52	0.002195
2006.16	0.002415
2015.81	0.002845
2025.45	0.003075
2035.1	0.003025
2044.74	0.002565
2054.38	0.002195
2064.03	0.001955
2073.67	0.001805
2083.32	0.001575
2092.96	0.001325
2102.61	0.0011564
2112.25	0.0010409
2121.9	0.0011107
2131.54	0.0010856
2141.19	0.0010554
2150.83	0.0009416
2160.48	0.0010007
2170.12	0.0009848
2179.77	0.0009648
2189.41	0.0009447
2199.06	0.0009308
2208.7	0.0008944
2218.35	0.0008449
2227.99	0.000984
2237.64	0.0010839
2247.28	0.001305
2256.92	0.001425
2266.57	0.001445
2276.21	0.001445
2285.86	0.001325
2295.5	0.001195
2305.15	0.0009612
2314.79	0.000911
2324.44	0.0007768
2334.08	0.0007882
2343.73	0.0007568
2353.37	0.0010016
2363.02	0.0009071
2372.66	0.0010425
2382.31	0.0009886
2391.95	0.0009555
2401.6	0.0010393
2411.24	0.0011079
2420.89	0.0011011
2430.53	0.001195
2440.18	0.0011049
2449.82	0.001205
2459.47	0.0010064
2469.11	0.0010557
2478.75	0.0011559
2488.4	0.0011162
2498.04	0.0011174
2507.69	0.001325
2517.33	0.001395
2526.98	0.001635
2536.62	0.001785
2546.27	0.001925
2555.91	0.002065
2565.56	0.001965
2575.2	0.001835
2584.85	0.001635
2594.49	0.001585
2604.14	0.001535
2613.78	0.001485
2623.43	0.001515
2633.07	0.001555
2642.72	0.001525
2652.36	0.001575
2662.01	0.001635
2671.65	0.001815
2681.29	0.001825
2690.94	0.002045
2700.58	0.002215
2710.23	0.002475
2719.87	0.002775
2729.52	0.003065
2739.16	0.003405
2748.81	0.003605
2758.45	0.003595
2768.1	0.003815
2777.74	0.004105
2787.39	0.004475
2797.03	0.005285
2806.68	0.006715
2816.32	0.009285
2825.97	0.014045
2835.61	0.024465
2845.26	0.031415
2854.9	0.031725
2864.55	0.031055
2874.19	0.032025
2883.84	0.034265
2893.48	0.034765
2903.12	0.040175
2912.77	0.051975
2922.41	0.060155
2932.06	0.069525
2941.7	0.079465
2951.35	0.062465
2960.99	0.044455
2970.64	0.039945
2980.28	0.043795
2989.93	0.043345
2999.57	0.035485
3009.22	0.025095
3018.86	0.017035
3028.51	0.016255
3038.15	0.016965
3047.8	0.015465
3057.44	0.012515
3067.09	0.009535
3076.73	0.007475
3086.38	0.005575
3096.02	0.004425
3105.67	0.003575
3115.31	0.003015
3124.95	0.002525
3134.6	0.001925
3144.24	0.001565
3153.89	0.001425
3163.53	0.0011747
3173.18	0.0010657
3182.82	0.0010807
3192.47	0.0008502
3202.11	0.0006626
3211.76	0.0007754
3221.4	0.000607
3231.05	0.000662
3240.69	0.0006353
3250.34	0.0004161
3259.98	0.0005079
3269.63	0.0004932
3279.27	0.0005415
3288.92	0.0004279
3298.56	0.0004314
3308.21	0.0003685
3317.85	0.0004433
3327.49	0.0005647
3337.14	0.0009127
3346.78	0.0008866
3356.43	0.0006189
3366.07	0.0003563
3375.72	0.0003648
3385.36	0.0005174
3395.01	0.0004712
3404.65	0.0007468
3414.3	0.000559
3423.94	0.0004216
3433.59	0.0004001
3443.23	0.0003082
3452.88	0.000183799
3462.52	0.00026148
3472.17	6.2e-05
3481.81	0.00026744
3491.46	0.0001403
3501.1	0.0002119
3510.75	1.3e-05
3520.39	0.0003833
3530.04	0.0003082
3539.68	0.0002917
3549.32	0.000174697
3558.97	0.0003352
3568.61	0.00020379
3578.26	0.0001611
3587.9	0.0001156
3597.55	0.00027051
3607.19	0.00017089
3616.84	8.95e-05
3626.48	0.00026929
3636.13	7.96e-05
3645.77	0.00019758
3655.42	0.0003095
3665.06	0.0003101
3674.71	0.0001692
3684.35	0.0002435
3694	0.0003123
3703.64	0.0002238
3713.29	0.00021533
3722.93	0.0001119
3732.58	0.00017187
3742.22	0.0003605
3751.86	0.0003561
3761.51	0.0004881
3771.15	0.0003941
3780.8	0.00023914
3790.44	0.0002977
3800.09	0.0004743
3809.73	0.0004409
3819.38	0.000268
3829.02	0.00025268
3838.67	0.000174953
3848.31	0.0004472
3857.96	0.0003637
3867.6	0.0003272
3877.25	0.000407
3886.89	0.0003055
3896.54	0.0004983
3906.18	0.0005152
3915.83	0.0003462
3925.47	0.0004312
3935.12	0.0005091
3944.76	0.0005091
3954.41	0.0006155
3964.05	0.0003309
3973.69	0.0007245
3983.34	0.0005718
3992.98	0.000803
