Infrared Spectrum: n-HEXASULFONYL-2-PROPANONE
Formula: C9 H18 O3 S
CAS: 86453-14-7
State: SOLID (KBr PRESSING)
Melting point: 121-123 C
Class: COBLENTZ
Instrument: Not specified, most likely a prism, grating, or hybrid spectrometer.
Sampling: TRANSMISSION
Resolution: 4
Origin: EASTMAN KODAK COMPANY, RESEARCH LABORATORIES, ROCHESTER, N.Y.
MICROMETERS	TRANSMITTANCE
2.013	0.798
2.05294	0.795
2.09289	0.79
2.13283	0.781
2.17277	0.78
2.21271	0.772
2.25266	0.757
2.2926	0.749
2.33254	0.752
2.37249	0.757
2.41243	0.759
2.45237	0.762
2.49232	0.767
2.53226	0.77
2.5722	0.78
2.61214	0.786
2.65209	0.783
2.69203	0.788
2.73197	0.796
2.77192	0.76
2.81186	0.749
2.8518	0.757
2.89174	0.765
2.93169	0.76
2.97163	0.765
3.01157	0.775
3.05152	0.778
3.09146	0.778
3.1314	0.778
3.17135	0.773
3.21129	0.768
3.25123	0.747
3.29117	0.732
3.33112	0.644
3.37106	0.381
3.411	0.234
3.45095	0.452
3.49089	0.368
3.53083	0.622
3.57077	0.739
3.61072	0.778
3.65066	0.791
3.6906	0.8
3.73055	0.806
3.77049	0.814
3.81043	0.821
3.85038	0.829
3.89032	0.836
3.93026	0.839
3.9702	0.842
4.01015	0.844
4.05009	0.842
4.09003	0.842
4.12998	0.842
4.16992	0.847
4.20986	0.852
4.2498	0.854
4.28975	0.857
4.32969	0.863
4.36963	0.863
4.40958	0.862
4.44952	0.863
4.48946	0.865
4.52941	0.868
4.56935	0.867
4.60929	0.862
4.64923	0.868
4.68918	0.868
4.72912	0.867
4.76906	0.867
4.80901	0.867
4.84895	0.867
4.88889	0.868
4.92883	0.87
4.96878	0.868
5.00872	0.868
5.04866	0.875
5.08861	0.873
5.12855	0.877
5.16849	0.878
5.20844	0.883
5.24838	0.886
5.28832	0.883
5.32826	0.888
5.36821	0.89
5.40815	0.888
5.44809	0.891
5.48804	0.888
5.52798	0.881
5.56792	0.877
5.60786	0.867
5.64781	0.847
5.68775	0.803
5.72769	0.69
5.76764	0.165
5.80758	0.173
5.84752	0.375
5.88747	0.608
5.92741	0.754
5.96735	0.803
6.00729	0.837
6.04724	0.837
6.08718	0.845
6.12712	0.85
6.16707	0.847
6.20701	0.862
6.24695	0.87
6.28689	0.885
6.32684	0.886
6.36678	0.89
6.40672	0.891
6.44667	0.886
6.48661	0.881
6.52655	0.883
6.5665	0.877
6.60644	0.877
6.64638	0.87
6.68632	0.865
6.72627	0.849
6.76621	0.795
6.80615	0.531
6.8461	0.552
6.88604	0.626
6.92598	0.68
6.96592	0.675
7.00587	0.637
7.04581	0.581
7.08575	0.565
7.1257	0.56
7.16564	0.568
7.20558	0.642
7.24552	0.603
7.28547	0.552
7.32541	0.454
7.36535	0.334
7.4053	0.442
7.44524	0.577
7.48518	0.563
7.52513	0.381
7.56507	0.14
7.60501	0.109
7.64495	0.113
7.6849	0.132
7.72484	0.19
7.76478	0.245
7.80473	0.28
7.84467	0.408
7.88461	0.506
7.92455	0.503
7.9645	0.488
8.00444	0.447
8.04438	0.432
8.08433	0.463
8.12427	0.524
8.16421	0.534
8.20416	0.537
8.2441	0.57
8.28404	0.6
8.32398	0.609
8.36393	0.626
8.40387	0.632
8.44381	0.627
8.48376	0.6
8.5237	0.57
8.56364	0.531
8.60358	0.472
8.64353	0.409
8.68347	0.367
8.72341	0.339
8.76336	0.316
8.8033	0.308
8.84324	0.318
8.88319	0.322
8.92313	0.209
8.96307	0.17
9.00301	0.221
9.04296	0.34
9.0829	0.509
9.12284	0.634
9.16279	0.683
9.20273	0.708
9.24267	0.749
9.28261	0.79
9.32256	0.811
9.3625	0.836
9.40244	0.852
9.44239	0.862
9.48233	0.863
9.52227	0.865
9.56222	0.862
9.60216	0.867
9.6421	0.868
9.68204	0.863
9.72199	0.86
9.76193	0.845
9.80187	0.826
9.84182	0.8
9.88176	0.778
9.9217	0.763
9.96164	0.762
10.0016	0.754
10.0415	0.727
10.0815	0.688
10.1214	0.655
10.1614	0.634
10.2013	0.634
10.2412	0.663
10.2812	0.693
10.3211	0.732
10.3611	0.76
10.401	0.791
10.441	0.826
10.4809	0.85
10.5208	0.867
10.5608	0.878
10.6007	0.888
10.6407	0.896
10.6806	0.901
10.7206	0.903
10.7605	0.903
10.8004	0.903
10.8404	0.896
10.8803	0.893
10.9203	0.9
10.9602	0.903
11.0002	0.908
11.0401	0.913
11.08	0.914
11.12	0.909
11.1599	0.904
11.1999	0.893
11.2398	0.87
11.2798	0.86
11.3197	0.837
11.3596	0.813
11.3996	0.796
11.4395	0.783
11.4795	0.773
11.5194	0.78
11.5594	0.778
11.5993	0.791
11.6392	0.796
11.6792	0.8
11.7191	0.803
11.7591	0.8
11.799	0.793
11.839	0.788
11.8789	0.781
11.9188	0.768
11.9588	0.755
11.9987	0.749
12.0387	0.726
12.0786	0.701
12.1186	0.677
12.1585	0.64
12.1984	0.611
12.2384	0.596
12.2783	0.58
12.3183	0.581
12.3582	0.6
12.3982	0.622
12.4381	0.677
12.478	0.719
12.518	0.75
12.5579	0.773
12.5979	0.785
12.6378	0.793
12.6778	0.801
12.7177	0.803
12.7577	0.804
12.7976	0.8
12.8375	0.791
12.8775	0.773
12.9174	0.763
12.9574	0.744
12.9973	0.726
13.0373	0.713
13.0772	0.706
13.1171	0.706
13.1571	0.714
13.197	0.726
13.237	0.74
13.2769	0.75
13.3169	0.755
13.3568	0.76
13.3967	0.765
13.4367	0.762
13.4766	0.759
13.5166	0.754
13.5565	0.734
13.5965	0.722
13.6364	0.701
13.6763	0.691
13.7163	0.677
13.7562	0.675
13.7962	0.688
13.8361	0.706
13.8761	0.722
13.916	0.736
13.9559	0.744
13.9959	0.75
14.0358	0.757
14.0758	0.762
14.1157	0.759
14.1557	0.76
14.1956	0.757
14.2355	0.752
14.2755	0.754
14.3154	0.757
14.3554	0.759
14.3953	0.763
14.4353	0.763
14.4752	0.765
14.5151	0.763
14.5551	0.763
14.595	0.76
14.635	0.76
14.6749	0.76
14.7149	0.755
14.7548	0.754
14.7947	0.752
14.8347	0.745
14.8746	0.74
14.9146	0.739
14.9545	0.74
14.9945	0.739
15.0344	0.734
15.0743	0.734
15.1143	0.727
15.1542	0.734
15.1942	0.734
15.2341	0.734
15.2741	0.739
15.314	0.742
15.3539	0.745
15.3939	0.749
15.4338	0.752
15.4738	0.749
15.5137	0.745
15.5537	0.749
15.5936	0.747
15.6335	0.75
15.6735	0.747
15.7134	0.75
15.7534	0.745
15.7933	0.744
15.8333	0.742
15.8732	0.74
15.9131	0.737
15.9531	0.731
15.993	0.731
