Infrared Spectrum: ETHYLSULFONYLPROPANONE
Formula: C5 H10 O3 S
CAS: 86453-13-6
Boiling point: 152-154 C
Class: COBLENTZ
Instrument: Not specified, most likely a prism, grating, or hybrid spectrometer.
Sampling: TRANSMISSION
Path length: SMEAR ON NaCl
Resolution: 4
Origin: EASTMAN KODAK COMPANY, RESEARCH LABORATORIES, ROCHESTER, N.Y.
MICROMETERS	TRANSMITTANCE
2	0.822
2.04004	0.822
2.08007	0.822
2.12011	0.822
2.16015	0.822
2.20019	0.815
2.24022	0.784
2.28026	0.776
2.3203	0.789
2.36033	0.794
2.40037	0.796
2.44041	0.802
2.48045	0.8
2.52048	0.796
2.56052	0.81
2.60056	0.82
2.6406	0.832
2.68063	0.833
2.72067	0.832
2.76071	0.745
2.80074	0.605
2.84078	0.587
2.88082	0.639
2.92086	0.702
2.96089	0.71
3.00093	0.769
3.04097	0.784
3.081	0.784
3.12104	0.787
3.16108	0.789
3.20112	0.781
3.24115	0.773
3.28119	0.733
3.32123	0.659
3.36127	0.304
3.4013	0.351
3.44134	0.434
3.48138	0.595
3.52141	0.738
3.56145	0.769
3.60149	0.792
3.64153	0.809
3.68156	0.822
3.7216	0.827
3.76164	0.833
3.80167	0.843
3.84171	0.848
3.88175	0.848
3.92179	0.848
3.96182	0.848
4.00186	0.851
4.0419	0.845
4.08194	0.837
4.12197	0.817
4.16201	0.819
4.20205	0.833
4.24208	0.827
4.28212	0.832
4.32216	0.845
4.3622	0.856
4.40223	0.855
4.44227	0.843
4.48231	0.853
4.52234	0.86
4.56238	0.855
4.60242	0.86
4.64246	0.86
4.68249	0.865
4.72253	0.868
4.76257	0.873
4.80261	0.871
4.84264	0.873
4.88268	0.878
4.92272	0.881
4.96275	0.878
5.00279	0.875
5.04283	0.871
5.08287	0.876
5.1229	0.878
5.16294	0.871
5.20298	0.875
5.24301	0.886
5.28305	0.894
5.32309	0.896
5.36313	0.883
5.40316	0.881
5.4432	0.878
5.48324	0.876
5.52328	0.865
5.56331	0.848
5.60335	0.827
5.64339	0.794
5.68342	0.73
5.72346	0.621
5.7635	0.35
5.80354	0.05
5.84357	0.082
5.88361	0.212
5.92365	0.501
5.96368	0.59
6.00372	0.672
6.04376	0.715
6.0838	0.708
6.12383	0.699
6.16387	0.699
6.20391	0.718
6.24395	0.777
6.28398	0.802
6.32402	0.824
6.36406	0.82
6.40409	0.827
6.44413	0.828
6.48417	0.83
6.52421	0.828
6.56424	0.83
6.60428	0.83
6.64432	0.824
6.68435	0.817
6.72439	0.799
6.76443	0.751
6.80447	0.697
6.8445	0.455
6.88454	0.411
6.92458	0.48
6.96462	0.508
7.00465	0.425
7.04469	0.322
7.08473	0.319
7.12476	0.302
7.1648	0.32
7.20484	0.37
7.24488	0.383
7.28491	0.351
7.32495	0.264
7.36499	0.174
7.40502	0.182
7.44506	0.348
7.4851	0.409
7.52514	0.31
7.56517	0.115
7.60521	0.044
7.64525	0.036
7.68529	0.041
7.72532	0.055
7.76536	0.092
7.8054	0.12
7.84543	0.123
7.88547	0.184
7.92551	0.279
7.96555	0.289
8.00558	0.21
8.04562	0.177
8.08566	0.182
8.12569	0.192
8.16573	0.231
8.20577	0.302
8.24581	0.36
8.28584	0.388
8.32588	0.401
8.36592	0.414
8.40596	0.427
8.44599	0.421
8.48603	0.389
8.52607	0.35
8.5661	0.279
8.60614	0.226
8.64618	0.174
8.68622	0.149
8.72625	0.133
8.76629	0.111
8.80633	0.098
8.84636	0.09
8.8864	0.092
8.92644	0.074
8.96648	0.054
9.00651	0.075
9.04655	0.148
9.08659	0.31
9.12663	0.491
9.16666	0.605
9.2067	0.68
9.24674	0.718
9.28677	0.731
9.32681	0.748
9.36685	0.745
9.40689	0.699
9.44692	0.603
9.48696	0.45
9.527	0.35
9.56703	0.412
9.60707	0.521
9.64711	0.639
9.68715	0.7
9.72718	0.71
9.76722	0.712
9.80726	0.69
9.8473	0.629
9.88733	0.569
9.92737	0.511
9.96741	0.509
10.0074	0.531
10.0475	0.501
10.0875	0.412
10.1276	0.358
10.1676	0.356
10.2076	0.401
10.2477	0.432
10.2877	0.48
10.3277	0.519
10.3678	0.569
10.4078	0.633
10.4479	0.703
10.4879	0.75
10.5279	0.781
10.568	0.809
10.608	0.832
10.648	0.851
10.6881	0.868
10.7281	0.878
10.7682	0.884
10.8082	0.891
10.8482	0.893
10.8883	0.899
10.9283	0.906
10.9683	0.909
11.0084	0.914
11.0484	0.916
11.0884	0.912
11.1285	0.909
11.1685	0.899
11.2086	0.884
11.2486	0.86
11.2886	0.828
11.3287	0.777
11.3687	0.728
11.4087	0.687
11.4488	0.667
11.4888	0.674
11.5289	0.689
11.5689	0.708
11.6089	0.728
11.649	0.735
11.689	0.738
11.729	0.728
11.7691	0.717
11.8091	0.69
11.8492	0.659
11.8892	0.62
11.9292	0.595
11.9693	0.569
12.0093	0.523
12.0493	0.46
12.0894	0.419
12.1294	0.379
12.1695	0.35
12.2095	0.305
12.2495	0.269
12.2896	0.23
12.3296	0.217
12.3696	0.23
12.4097	0.281
12.4497	0.351
12.4898	0.414
12.5298	0.422
12.5698	0.404
12.6099	0.348
12.6499	0.319
12.6899	0.328
12.73	0.389
12.77	0.472
12.81	0.537
12.8501	0.601
12.8901	0.639
12.9302	0.641
12.9702	0.629
13.0102	0.61
13.0503	0.569
13.0903	0.537
13.1303	0.534
13.1704	0.555
13.2104	0.59
13.2505	0.628
13.2905	0.657
13.3305	0.671
13.3706	0.68
13.4106	0.69
13.4506	0.689
13.4907	0.679
13.5307	0.669
13.5708	0.648
13.6108	0.634
13.6508	0.625
13.6909	0.6
13.7309	0.56
13.7709	0.532
13.811	0.521
13.851	0.521
13.8911	0.542
13.9311	0.564
13.9711	0.567
14.0112	0.564
14.0512	0.564
14.0912	0.58
14.1313	0.616
14.1713	0.649
14.2114	0.68
14.2514	0.705
14.2914	0.726
14.3315	0.74
14.3715	0.75
14.4115	0.751
14.4516	0.75
14.4916	0.754
14.5316	0.75
14.5717	0.733
14.6117	0.722
14.6518	0.712
14.6918	0.695
14.7318	0.669
14.7719	0.639
14.8119	0.605
14.8519	0.55
14.892	0.503
14.932	0.491
14.9721	0.475
15.0121	0.458
15.0521	0.48
15.0922	0.503
15.1322	0.532
15.1722	0.554
15.2123	0.564
15.2523	0.577
15.2924	0.578
15.3324	0.574
15.3724	0.57
15.4125	0.56
15.4525	0.547
15.4925	0.539
15.5326	0.537
15.5726	0.534
15.6127	0.531
15.6527	0.523
15.6927	0.529
15.7328	0.526
15.7728	0.523
15.8128	0.523
15.8529	0.523
15.8929	0.524
15.933	0.524
15.973	0.523
16.013	0.508
