Infrared Spectrum: 1-PHENYL-2-ACETYL-4,4-DIMETHYL-3-PYRAZOLIDONE
Formula: C13 H16 N2 O2
CAS: 86475-37-8
State: SOLID (KBr PRESSING)
Melting point: 91-93 C
Class: COBLENTZ
Instrument: Not specified, most likely a prism, grating, or hybrid spectrometer.
Sampling: TRANSMISSION
Resolution: 4
Origin: EASTMAN KODAK COMPANY, RESEARCH LABORATORIES, ROCHESTER, N.Y.
MICROMETERS	TRANSMITTANCE
2.058	0.75
2.09318	0.753
2.12837	0.748
2.16355	0.739
2.19874	0.739
2.23392	0.745
2.26911	0.748
2.30429	0.75
2.33947	0.752
2.37466	0.752
2.40984	0.753
2.44503	0.764
2.48021	0.766
2.5154	0.757
2.55058	0.778
2.58576	0.774
2.62095	0.769
2.65613	0.774
2.69132	0.78
2.7265	0.773
2.76169	0.781
2.79687	0.773
2.83205	0.699
2.86724	0.687
2.90242	0.65
2.93761	0.609
2.97279	0.612
3.00797	0.626
3.04316	0.659
3.07834	0.684
3.11353	0.719
3.14871	0.743
3.1839	0.759
3.21908	0.766
3.25426	0.767
3.28945	0.712
3.32463	0.701
3.35982	0.638
3.395	0.478
3.43019	0.509
3.46537	0.657
3.50055	0.631
3.53574	0.75
3.57092	0.788
3.60611	0.792
3.64129	0.809
3.67648	0.82
3.71166	0.815
3.74684	0.816
3.78203	0.821
3.81721	0.823
3.8524	0.83
3.88758	0.828
3.92277	0.82
3.95795	0.811
3.99313	0.811
4.02832	0.821
4.0635	0.83
4.09869	0.841
4.13387	0.842
4.16906	0.839
4.20424	0.832
4.23942	0.818
4.27461	0.818
4.30979	0.821
4.34498	0.816
4.38016	0.827
4.41534	0.83
4.45053	0.83
4.48571	0.851
4.5209	0.849
4.55608	0.849
4.59127	0.832
4.62645	0.832
4.66163	0.834
4.69682	0.842
4.732	0.848
4.76719	0.834
4.80237	0.849
4.83756	0.849
4.87274	0.841
4.90792	0.844
4.94311	0.849
4.97829	0.839
5.01348	0.839
5.04866	0.83
5.08385	0.832
5.11903	0.82
5.15421	0.823
5.1894	0.808
5.22458	0.809
5.25977	0.808
5.29495	0.811
5.33014	0.806
5.36532	0.801
5.4005	0.759
5.43569	0.739
5.47087	0.726
5.50606	0.717
5.54124	0.701
5.57643	0.626
5.61161	0.558
5.64679	0.397
5.68198	0.197
5.71716	0.164
5.75235	0.153
5.78753	0.251
5.82271	0.24
5.8579	0.129
5.89308	0.191
5.92827	0.322
5.96345	0.486
5.99864	0.565
6.03382	0.584
6.069	0.645
6.10419	0.643
6.13937	0.649
6.17456	0.596
6.20974	0.27
6.24493	0.363
6.28011	0.476
6.31529	0.616
6.35048	0.68
6.38566	0.678
6.42085	0.705
6.45603	0.701
6.49122	0.729
6.5264	0.712
6.56158	0.691
6.59677	0.645
6.63195	0.455
6.66714	0.263
6.70232	0.352
6.73751	0.45
6.77269	0.303
6.80787	0.275
6.84306	0.417
6.87824	0.497
6.91343	0.539
6.94861	0.52
6.9838	0.502
7.01898	0.464
7.05416	0.525
7.08935	0.539
7.12453	0.417
7.15972	0.244
7.1949	0.375
7.23008	0.23
7.26527	0.287
7.30045	0.476
7.33564	0.614
7.37082	0.624
7.40601	0.591
7.44119	0.588
7.47637	0.551
7.51156	0.528
7.54674	0.52
7.58193	0.432
7.61711	0.376
7.6523	0.284
7.68748	0.26
7.72266	0.178
7.75785	0.09
7.79303	0.059
7.82822	0.04
7.8634	0.041
7.89859	0.055
7.93377	0.102
7.96895	0.198
8.00414	0.294
8.03932	0.268
8.07451	0.169
8.10969	0.19
8.14488	0.301
8.18006	0.403
8.21524	0.376
8.25043	0.202
8.28561	0.104
8.3208	0.109
8.35598	0.228
8.39117	0.254
8.42635	0.113
8.46153	0.069
8.49672	0.054
8.5319	0.151
8.56709	0.225
8.60227	0.287
8.63745	0.403
8.67264	0.462
8.70782	0.502
8.74301	0.523
8.77819	0.507
8.81338	0.443
8.84856	0.457
8.88374	0.541
8.91893	0.593
8.95411	0.607
8.9893	0.638
9.02448	0.656
9.05967	0.659
9.09485	0.64
9.13003	0.478
9.16522	0.429
9.2004	0.603
9.23559	0.657
9.27077	0.671
9.30596	0.689
9.34114	0.692
9.37632	0.692
9.41151	0.682
9.44669	0.633
9.48188	0.574
9.51706	0.396
9.55225	0.253
9.58743	0.097
9.62261	0.064
9.6578	0.062
9.69298	0.176
9.72817	0.312
9.76335	0.385
9.79854	0.478
9.83372	0.532
9.8689	0.598
9.90409	0.603
9.93927	0.605
9.97446	0.602
10.0096	0.623
10.0448	0.609
10.08	0.617
10.1152	0.652
10.1504	0.635
10.1856	0.605
10.2207	0.614
10.2559	0.663
10.2911	0.671
10.3263	0.654
10.3615	0.572
10.3967	0.589
10.4319	0.643
10.467	0.642
10.5022	0.504
10.5374	0.268
10.5726	0.183
10.6078	0.394
10.643	0.554
10.6781	0.623
10.7133	0.636
10.7485	0.643
10.7837	0.602
10.8189	0.516
10.8541	0.361
10.8892	0.385
10.9244	0.499
10.9596	0.595
10.9948	0.633
11.03	0.647
11.0652	0.61
11.1004	0.623
11.1355	0.657
11.1707	0.677
11.2059	0.701
11.2411	0.715
11.2763	0.731
11.3115	0.727
11.3466	0.729
11.3818	0.727
11.417	0.731
11.4522	0.731
11.4874	0.732
11.5226	0.734
11.5577	0.732
11.5929	0.726
11.6281	0.729
11.6633	0.732
11.6985	0.729
11.7337	0.722
11.7689	0.673
11.804	0.553
11.8392	0.514
11.8744	0.591
11.9096	0.656
11.9448	0.685
11.98	0.696
12.0151	0.694
12.0503	0.678
12.0855	0.685
12.1207	0.701
12.1559	0.706
12.1911	0.706
12.2262	0.705
12.2614	0.703
12.2966	0.675
12.3318	0.631
12.367	0.654
12.4022	0.675
12.4374	0.703
12.4725	0.712
12.5077	0.713
12.5429	0.717
12.5781	0.724
12.6133	0.727
12.6485	0.726
12.6836	0.722
12.7188	0.719
12.754	0.706
12.7892	0.701
12.8244	0.691
12.8596	0.666
12.8947	0.631
12.9299	0.593
12.9651	0.504
13.0003	0.375
13.0355	0.211
13.0707	0.09
13.1059	0.083
13.141	0.191
13.1762	0.314
13.2114	0.427
13.2466	0.471
13.2818	0.453
13.317	0.422
13.3521	0.472
13.3873	0.581
13.4225	0.614
13.4577	0.635
13.4929	0.645
13.5281	0.652
13.5632	0.654
13.5984	0.657
13.6336	0.659
13.6688	0.663
13.704	0.654
13.7392	0.649
13.7744	0.649
13.8095	0.649
13.8447	0.65
13.8799	0.65
13.9151	0.638
13.9503	0.631
13.9855	0.628
14.0206	0.616
14.0558	0.561
14.091	0.497
14.1262	0.401
14.1614	0.38
14.1966	0.39
14.2318	0.42
14.2669	0.42
14.3021	0.371
14.3373	0.284
14.3725	0.174
14.4077	0.139
14.4429	0.184
14.478	0.291
14.5132	0.369
14.5484	0.401
14.5836	0.424
14.6188	0.431
14.654	0.429
14.6891	0.424
14.7243	0.424
14.7595	0.431
14.7947	0.431
14.8299	0.363
14.8651	0.301
14.9003	0.357
14.9354	0.422
14.9706	0.415
15.0058	0.403
15.041	0.392
15.0762	0.373
15.1114	0.368
15.1465	0.356
15.1817	0.35
15.2169	0.34
15.2521	0.329
15.2873	0.314
15.3225	0.312
15.3576	0.308
15.3928	0.307
15.428	0.301
15.4632	0.291
15.4984	0.273
15.5336	0.265
15.5688	0.26
15.6039	0.23
15.6391	0.225
15.6743	0.216
15.7095	0.214
15.7447	0.219
15.7799	0.212
15.815	0.214
15.8502	0.207
15.8854	0.202
15.9206	0.198
15.9558	0.198
15.991	0.2
