Infrared Spectrum: 2-(Trimethylsilylethynyl)pyridine
Formula: C 10 H 13 N Si
CAS: 86521-05-3
State: gas
Origin: EPA-IR VAPOR PHASE LIBRARY
1/CM	ABSORBANCE
549.8	0.00524
559.445	0.00428
569.09	0.00534
578.734	0.00484
588.379	0.00322
598.024	0.00606
607.669	0.0043
617.313	0.00318
626.958	0.0055
636.603	0.00611
646.248	0.01512
655.893	0.0175
665.537	0.01266
675.182	0.01253
684.827	0.01283
694.472	0.01712
704.116	0.02009
713.761	0.02112
723.406	0.02132
733.051	0.02221
742.695	0.02367
752.34	0.03124
761.985	0.04647
771.63	0.05484
781.275	0.04523
790.919	0.03096
800.564	0.02304
810.209	0.02631
819.854	0.03909
829.498	0.06135
839.143	0.10995
848.788	0.15766
858.433	0.16112
868.078	0.20552
877.722	0.18266
887.367	0.08884
897.012	0.05449
906.657	0.03525
916.301	0.02249
925.946	0.01645
935.591	0.01238
945.236	0.00922
954.88	0.00575
964.525	0.00523
974.17	0.00553
983.815	0.00695
993.46	0.00504
1003.1	0.00361
1012.75	0.0018812
1022.39	0.00363
1032.04	0.00423
1041.68	0.00784
1051.33	0.00662
1060.97	0.00482
1070.62	0.00412
1080.26	0.00332
1089.91	0.00354
1099.55	0.00035
1109.2	0.0023944
1118.84	0.0017625
1128.49	0.0022223
1138.13	0.00792
1147.78	0.01126
1157.42	0.00355
1167.07	0.00423
1176.71	0.00506
1186.36	0.00623
1196	0.00619
1205.64	0.00999
1215.29	0.01987
1224.93	0.026
1234.58	0.05039
1244.22	0.10353
1253.87	0.07717
1263.51	0.05945
1273.16	0.03475
1282.8	0.01588
1292.45	0.01208
1302.09	0.00967
1311.74	0.00746
1321.38	0.00675
1331.03	0.00457
1340.67	0.00372
1350.32	0.00327
1359.96	0.00393
1369.61	0.00407
1379.25	0.00454
1388.9	0.00511
1398.54	0.00607
1408.18	0.00999
1417.83	0.02639
1427.47	0.0517
1437.12	0.01553
1446.76	0.01691
1456.41	0.07211
1466.05	0.06781
1475.7	0.0087
1485.34	0.00404
1494.99	0.00357
1504.63	0.00417
1514.28	0.00361
1523.92	0.00383
1533.57	0.00502
1543.21	0.00865
1552.86	0.01527
1562.5	0.02848
1572.15	0.05466
1581.79	0.0636
1591.44	0.02647
1601.08	0.00838
1610.73	0.00508
1620.37	0.00428
1630.01	0.00307
1639.66	0.0026
1649.3	0.0025456
1658.95	0.00328
1668.59	0.00293
1678.24	0.00257
1687.88	0.00228
1697.53	0.002248
1707.17	0.0020501
1716.82	0.0018871
1726.46	0.0022087
1736.11	0.0025259
1745.75	0.00271
1755.4	0.00257
1765.04	0.00267
1774.69	0.0020812
1784.33	0.00159681
1793.98	0.0015138
1803.62	0.0019
1813.27	0.0019332
1822.91	0.0021209
1832.55	0.0022537
1842.2	0.0023181
1851.84	0.0024739
1861.49	0.00287
1871.13	0.0024792
1880.78	0.0017614
1890.42	0.00162217
1900.07	0.0020508
1909.71	0.00302
1919.36	0.00278
1929	0.0023189
1938.65	0.00285
1948.29	0.00343
1957.94	0.00318
1967.58	0.00368
1977.23	0.0024606
1986.87	0.0017922
1996.52	0.00162319
2006.16	0.0018088
2015.81	0.0017205
2025.45	0.0017184
2035.1	0.0016851
2044.74	0.0017492
2054.38	0.0016906
2064.03	0.0021073
2073.67	0.0023398
2083.32	0.0017894
2092.96	0.0020755
2102.61	0.0022242
2112.25	0.0025248
2121.9	0.00262
2131.54	0.0028
2141.19	0.00436
2150.83	0.00823
2160.48	0.01417
2170.12	0.01331
2179.77	0.00469
2189.41	0.0017805
2199.06	0.001448
2208.7	0.001452
2218.35	0.0014971
2227.99	0.001131
2237.64	0.001167
2247.28	0.001043
2256.92	0.001138
2266.57	0.001167
2276.21	0.001387
2285.86	0.0017844
2295.5	0.0016763
2305.15	0.00158423
2314.79	0.001063
2324.44	0.00143
2334.08	0.001029
2343.73	0.000978
2353.37	0.001181
2363.02	0.001159
2372.66	0.000953
2382.31	0.001153
2391.95	0.001023
2401.6	0.000714
2411.24	0.00158127
2420.89	0.001305
2430.53	0.001098
2440.18	0.001331
2449.82	0.0015069
2459.47	0.001341
2469.11	0.001342
2478.75	0.0015791
2488.4	0.001477
2498.04	0.001135
2507.69	0.00155297
2517.33	0.001384
2526.98	0.001139
2536.62	0.001368
2546.27	0.001011
2555.91	0.000798
2565.56	0.001297
2575.2	0.000728
2584.85	0.00048
2594.49	0.001216
2604.14	0.0009
2613.78	0.000859
2623.43	0.001099
2633.07	0.001383
2642.72	0.000812
2652.36	0.00165963
2662.01	0.001346
2671.65	0.000725
2681.29	0.0015152
2690.94	0.001084
2700.58	0.001368
2710.23	0.0015105
2719.87	0.000899
2729.52	0.001219
2739.16	0.000874
2748.81	0.0017109
2758.45	0.0015263
2768.1	0.0018651
2777.74	0.0021329
2787.39	0.0023512
2797.03	0.00267
2806.68	0.00361
2816.32	0.0037
2825.97	0.00368
2835.61	0.00312
2845.26	0.00312
2854.9	0.00471
2864.55	0.00427
2874.19	0.00487
2883.84	0.00661
2893.48	0.00966
2903.12	0.01512
2912.77	0.01456
2922.41	0.00936
2932.06	0.00707
2941.7	0.00832
2951.35	0.01687
2960.99	0.04178
2970.64	0.04273
2980.28	0.02108
2989.93	0.0118
2999.57	0.00964
3009.22	0.01158
3018.86	0.0083
3028.51	0.00641
3038.15	0.00786
3047.8	0.01299
3057.44	0.01928
3067.09	0.02489
3076.73	0.0231
3086.38	0.0174
3096.02	0.0087
3105.67	0.00591
3115.31	0.00496
3124.95	0.00517
3134.6	0.00397
3144.24	0.00341
3153.89	0.0023005
3163.53	0.0020656
3173.18	0.00163293
3182.82	0.0019797
3192.47	0.001263
3202.11	0.0019332
3211.76	0.000957
3221.4	0.000913
3231.05	0.001015
3240.69	0.000737
3250.34	0.000872
3259.98	0.001021
3269.63	0.001143
3279.27	0.001094
3288.92	0.0018464
3298.56	0.001024
3308.21	0.001195
3317.85	0.00098
3327.49	0.001324
3337.14	0.001159
3346.78	0.00052
3356.43	0.0019171
3366.07	0.001384
3375.72	0.001132
3385.36	0.001316
3395.01	0.000675
3404.65	0.000958
3414.3	0.000943
3423.94	0.0017292
3433.59	0.00053
3443.23	0.0015381
3452.88	0.001155
3462.52	0.0005
3472.17	0.000719
3481.81	0.001079
3491.46	0.001216
3501.1	0.001189
3510.75	0.001365
3520.39	0.001345
3530.04	0.001179
3539.68	0.000817
3549.32	0.000956
3558.97	0.0017968
3568.61	0.001256
3578.26	0.000963
3587.9	0.001009
3597.55	0.0016684
3607.19	0.00039
3616.84	0.00123
3626.48	0.001434
3636.13	0.000827
3645.77	0.001457
3655.42	0.00156936
3665.06	0.0018994
3674.71	0.0023453
3684.35	0.00160222
3694	0.0021358
3703.64	0.0020174
3713.29	0.0016852
3722.93	0.0021937
3732.58	0.0021521
3742.22	0.0017784
3751.86	0.00177
3761.51	0.0020636
3771.15	0.0018847
3780.8	0.0017531
3790.44	0.00126
3800.09	0.0017988
3809.73	0.0016084
3819.38	0.001306
3829.02	0.00053
3838.67	0.000906
3848.31	0.001185
3857.96	0.0021164
3867.6	0.001037
3877.25	0.00048
3886.89	0.0018437
3896.54	0.0014748
3906.18	0.00038
3915.83	0.00107
3925.47	0.00044
3935.12	0.001428
3944.76	0.000746
3954.41	0.000752
3964.05	0.000818
3973.69	0.001373
3983.34	0.001065
3992.98	0.000764
