Infrared Spectrum: Ammonium bromide, tetra(n-pentyl)-
Formula: C20 H44 Br N
CAS: 866-97-7
State: SOLID (SPLIT MULL), FLUOROLUBE FOR 3800-1330 CM^-^1, NUJOL FOR 1330-400 CM^-^1
Class: COBLENTZ III
Instrument: BECKMAN IR-9 (GRATING)
Instrument parameters: ORDER CHANGES: 670, 1200, 2000 CM^-^1
Sampling: TRANSMISSION
Resolution: 2
Origin: DOW CHEMICAL COMPANY
1/CM	TRANSMITTANCE
3796	0.7608
3787	0.7611
3778	0.7625
3769	0.764
3760	0.7619
3751	0.7583
3742	0.7601
3733	0.7628
3724	0.7654
3715	0.7665
3706	0.7678
3697	0.7693
3688	0.7683
3679	0.7682
3670	0.7718
3661	0.7731
3652	0.774
3643	0.7744
3634	0.7746
3625	0.7749
3616	0.7755
3607	0.776
3598	0.7757
3589	0.7718
3580	0.7737
3571	0.7747
3562	0.7755
3553	0.7761
3544	0.7771
3535	0.778
3526	0.7789
3517	0.7794
3508	0.7795
3499	0.7795
3490	0.7796
3481	0.7797
3472	0.78
3463	0.7803
3454	0.7811
3445	0.7818
3436	0.7818
3427	0.7811
3418	0.7799
3409	0.7775
3400	0.7751
3391	0.7715
3382	0.7682
3373	0.7625
3364	0.7585
3355	0.7545
3346	0.7521
3337	0.7571
3328	0.7611
3319	0.7558
3310	0.7557
3301	0.7658
3292	0.7767
3283	0.786
3274	0.7921
3265	0.7971
3256	0.8005
3247	0.8018
3238	0.8033
3229	0.8045
3220	0.8056
3211	0.806
3202	0.8064
3193	0.8071
3184	0.8085
3175	0.8082
3166	0.8026
3157	0.8018
3148	0.8085
3139	0.8118
3130	0.8122
3121	0.8128
3112	0.8134
3103	0.8139
3094	0.8144
3085	0.814
3076	0.8135
3067	0.8125
3058	0.8111
3049	0.8084
3040	0.8037
3031	0.7976
3022	0.7901
3013	0.7825
3004	0.7728
2995	0.604
2986	0.6204
2977	0.5086
2968	0.235
2959	0.0689
2950	0.0747
2941	0.2161
2932	0.1844
2923	0.148
2914	0.2537
2905	0.3061
2896	0.3573
2887	0.3802
2878	0.3382
2869	0.1816
2860	0.2646
2851	0.2511
2842	0.4707
2833	0.5991
2824	0.6375
2815	0.6739
2806	0.7144
2797	0.7358
2788	0.7515
2779	0.7649
2770	0.7762
2761	0.7855
2752	0.7899
2743	0.7878
2734	0.774
2725	0.7695
2716	0.7922
2707	0.8068
2698	0.8055
2689	0.8051
2680	0.8088
2671	0.8138
2662	0.8187
2653	0.8221
2644	0.824
2635	0.8232
2626	0.8203
2617	0.819
2608	0.8203
2599	0.8231
2590	0.8259
2581	0.8283
2572	0.8299
2563	0.8315
2554	0.8338
2545	0.8361
2536	0.838
2527	0.8392
2518	0.8403
2509	0.8407
2500	0.8412
2491	0.8416
2482	0.8421
2473	0.8415
2464	0.8404
2455	0.8394
2446	0.8384
2437	0.837
2428	0.8355
2419	0.8339
2410	0.8324
2401	0.8309
2392	0.8297
2383	0.8285
2374	0.8273
2365	0.826
2356	0.8248
2347	0.8249
2338	0.8251
2329	0.8252
2320	0.8252
2311	0.8247
2302	0.8244
2293	0.8243
2284	0.825
2275	0.8256
2266	0.8274
2257	0.8321
2248	0.837
2239	0.8417
2230	0.8481
2221	0.8534
2212	0.8564
2203	0.8567
2194	0.8568
2185	0.8589
2176	0.8613
2167	0.8634
2158	0.865
2149	0.8666
2140	0.8681
2131	0.8695
2122	0.871
2113	0.8725
2104	0.8743
2095	0.8761
2086	0.8778
2077	0.8796
2068	0.8813
2059	0.8831
2050	0.8842
2041	0.8852
2032	0.886
2023	0.8861
2014	0.8851
2005	0.8845
1996	0.8858
1987	0.8871
1978	0.8884
1969	0.889
1960	0.8895
1951	0.89
1942	0.8899
1933	0.8886
1924	0.8834
1915	0.8828
1906	0.8823
1897	0.8815
1888	0.8824
1879	0.8828
1870	0.883
1861	0.8834
1852	0.8838
1843	0.8843
1834	0.8847
1825	0.8849
1816	0.8835
1807	0.8806
1798	0.8789
1789	0.8768
1780	0.876
1771	0.8783
1762	0.8781
1753	0.8777
1744	0.8774
1735	0.8773
1726	0.8775
1717	0.8782
1708	0.878
1699	0.876
1690	0.8756
1681	0.8758
1672	0.8758
1663	0.876
1654	0.8762
1645	0.8765
1636	0.8768
1627	0.8777
1618	0.8786
1609	0.8806
1600	0.8816
1591	0.8812
1582	0.8795
1573	0.8771
1564	0.8749
1555	0.8725
1546	0.8688
1537	0.8645
1528	0.8589
1519	0.8535
1510	0.8473
1501	0.8408
1492	0.8287
1483	0.7656
1474	0.3778
1465	0.0621
1456	0.4483
1447	0.6171
1438	0.661
1429	0.7256
1420	0.6947
1411	0.588
1402	0.7125
1393	0.69
1384	0.3884
1375	0.5989
1366	0.7035
1357	0.7031
1348	0.6412
1339	0.6451
1330	0.6655
1321	0.7775
1312	0.7786
1303	0.7684
1294	0.7835
1285	0.7999
1276	0.8018
1267	0.7665
1258	0.7901
1249	0.8197
1240	0.8146
1231	0.8253
1222	0.8297
1213	0.8291
1204	0.8283
1195	0.8271
1186	0.8248
1177	0.7996
1168	0.8097
1159	0.7856
1150	0.6039
1141	0.8049
1132	0.8133
1123	0.8025
1114	0.7175
1105	0.8214
1096	0.8232
1087	0.8115
1078	0.7796
1069	0.6465
1060	0.7464
1051	0.4921
1042	0.4269
1033	0.7761
1024	0.7803
1015	0.7675
1006	0.7717
997	0.7514
988	0.7825
979	0.8158
970	0.8182
961	0.8218
952	0.8281
943	0.8285
934	0.8234
925	0.8017
916	0.6894
907	0.8047
898	0.7785
889	0.7861
880	0.8354
871	0.8338
862	0.8263
853	0.8065
844	0.7555
835	0.4766
826	0.7454
817	0.8211
808	0.8282
799	0.8278
790	0.8201
781	0.8022
772	0.7583
763	0.5173
754	0.7726
745	0.7488
736	0.4739
727	0.3573
718	0.7532
709	0.7912
700	0.8075
691	0.8185
682	0.8275
673	0.8528
664	0.8613
655	0.8628
646	0.8644
637	0.8633
628	0.8678
619	0.8689
610	0.8683
601	0.8664
592	0.8617
583	0.8636
574	0.8595
565	0.8106
556	0.853
547	0.8557
538	0.8551
529	0.8494
520	0.8203
511	0.8271
502	0.8233
493	0.8133
484	0.7946
475	0.775
466	0.7522
457	0.7274
448	0.6968
439	0.6628
430	0.6293
421	0.5776
412	0.5388
403	0.5364
