Infrared Spectrum: DIETHYL DICHLORO TIN
Formula: C4 H10 Cl2 Sn
CAS: 866-55-7
State: SOLID (MINERAL OIL MULL)
Class: COBLENTZ
Instrument: Not specified, most likely a prism, grating, or hybrid spectrometer.
Sampling: TRANSMISSION
Resolution: 4
MICROMETERS	TRANSMITTANCE
2.013	0.488
2.05279	0.495
2.09258	0.5
2.13237	0.516
2.17217	0.533
2.21196	0.543
2.25175	0.541
2.29154	0.536
2.33133	0.536
2.37112	0.536
2.41091	0.538
2.4507	0.541
2.4905	0.557
2.53029	0.567
2.57008	0.577
2.60987	0.591
2.64966	0.596
2.68945	0.602
2.72924	0.617
2.76904	0.635
2.80883	0.639
2.84862	0.64
2.88841	0.642
2.9282	0.645
2.96799	0.645
3.00778	0.645
3.04758	0.644
3.08737	0.644
3.12716	0.635
3.16695	0.592
3.20674	0.594
3.24653	0.564
3.28632	0.514
3.32611	0.428
3.36591	0.276
3.4057	0.112
3.44549	0.008
3.48528	0.004
3.52507	0.011
3.56486	0.509
3.60465	0.703
3.64445	0.69
3.68424	0.682
3.72403	0.678
3.76382	0.673
3.80361	0.672
3.8434	0.683
3.88319	0.685
3.92299	0.703
3.96278	0.708
4.00257	0.725
4.04236	0.738
4.08215	0.748
4.12194	0.746
4.16173	0.736
4.20152	0.735
4.24132	0.741
4.28111	0.75
4.3209	0.759
4.36069	0.763
4.40048	0.758
4.44027	0.758
4.48006	0.758
4.51986	0.761
4.55965	0.766
4.59944	0.763
4.63923	0.761
4.67902	0.761
4.71881	0.771
4.7586	0.773
4.7984	0.773
4.83819	0.781
4.87798	0.788
4.91777	0.786
4.95756	0.786
4.99735	0.799
5.03714	0.812
5.07693	0.812
5.11673	0.809
5.15652	0.814
5.19631	0.809
5.2361	0.812
5.27589	0.814
5.31568	0.821
5.35547	0.824
5.39527	0.827
5.43506	0.837
5.47485	0.839
5.51464	0.85
5.55443	0.862
5.59422	0.864
5.63401	0.864
5.67381	0.865
5.7136	0.857
5.75339	0.852
5.79318	0.855
5.83297	0.847
5.87276	0.854
5.91255	0.831
5.95234	0.836
5.99214	0.839
6.03193	0.846
6.07172	0.841
6.11151	0.849
6.1513	0.862
6.19109	0.86
6.23088	0.865
6.27068	0.867
6.31047	0.875
6.35026	0.865
6.39005	0.887
6.42984	0.88
6.46963	0.869
6.50942	0.864
6.54922	0.85
6.58901	0.827
6.6288	0.773
6.66859	0.718
6.70838	0.562
6.74817	0.389
6.78796	0.125
6.82775	0.114
6.86755	0.122
6.90734	0.208
6.94713	0.437
6.98692	0.576
7.02671	0.569
7.0665	0.685
7.10629	0.718
7.14609	0.718
7.18588	0.526
7.22567	0.153
7.26546	0.216
7.30525	0.4
7.34504	0.591
7.38483	0.65
7.42463	0.692
7.46442	0.746
7.50421	0.789
7.544	0.819
7.58379	0.824
7.62358	0.822
7.66337	0.826
7.70316	0.857
7.74296	0.889
7.78275	0.91
7.82254	0.927
7.86233	0.94
7.90212	0.955
7.94191	0.97
7.9817	0.889
8.0215	0.806
8.06129	0.577
8.10108	0.594
8.14087	0.635
8.18066	0.66
8.22045	0.701
8.26024	0.716
8.30004	0.68
8.33983	0.594
8.37962	0.481
8.41941	0.437
8.4592	0.496
8.49899	0.577
8.53878	0.635
8.57857	0.678
8.61837	0.713
8.65816	0.741
8.69795	0.788
8.73774	0.817
8.77753	0.855
8.81732	0.867
8.85711	0.88
8.89691	0.894
8.9367	0.905
8.97649	0.908
9.01628	0.917
9.05607	0.918
9.09586	0.92
9.13565	0.92
9.17545	0.917
9.21524	0.917
9.25503	0.922
9.29482	0.928
9.33461	0.935
9.3744	0.953
9.41419	0.956
9.45398	0.965
9.49378	0.97
9.53357	0.95
9.57336	0.935
9.61315	0.85
9.65294	0.741
9.69273	0.65
9.73252	0.596
9.77232	0.653
9.81211	0.685
9.8519	0.64
9.89169	0.605
9.93148	0.622
9.97127	0.673
10.0111	0.721
10.0509	0.75
10.0906	0.763
10.1304	0.763
10.1702	0.753
10.21	0.705
10.2498	0.6
10.2896	0.395
10.3294	0.261
10.3692	0.256
10.409	0.286
10.4488	0.341
10.4886	0.403
10.5284	0.475
10.5681	0.526
10.6079	0.597
10.6477	0.622
10.6875	0.65
10.7273	0.675
10.7671	0.72
10.8069	0.736
10.8467	0.741
10.8865	0.761
10.9263	0.788
10.9661	0.809
11.0058	0.831
11.0456	0.839
11.0854	0.85
11.1252	0.85
11.165	0.85
11.2048	0.85
11.2446	0.869
11.2844	0.892
11.3242	0.895
11.364	0.9
11.4038	0.905
11.4436	0.905
11.4833	0.918
11.5231	0.922
11.5629	0.932
11.6027	0.932
11.6425	0.928
11.6823	0.928
11.7221	0.928
11.7619	0.932
11.8017	0.938
11.8415	0.943
11.8813	0.948
11.921	0.953
11.9608	0.958
12.0006	0.958
12.0404	0.963
12.0802	0.971
12.12	0.976
12.1598	0.983
12.1996	0.99
12.2394	0.993
12.2792	0.995
12.319	0.998
12.3588	0.998
12.3985	0.998
12.4383	0.998
12.4781	0.998
12.5179	0.998
12.5577	0.998
12.5975	1
12.6373	1
12.6771	0.998
12.7169	0.998
12.7567	0.998
12.7965	0.993
12.8363	0.981
12.876	0.98
12.9158	0.968
12.9556	0.968
12.9954	0.968
13.0352	0.963
13.075	0.961
13.1148	0.955
13.1546	0.951
13.1944	0.942
13.2342	0.933
13.274	0.917
13.3137	0.905
13.3535	0.894
13.3933	0.867
13.4331	0.846
13.4729	0.819
13.5127	0.783
13.5525	0.759
13.5923	0.746
13.6321	0.735
13.6719	0.71
13.7117	0.69
13.7515	0.658
13.7912	0.632
13.831	0.63
13.8708	0.635
13.9106	0.66
13.9504	0.67
13.9902	0.672
14.03	0.672
14.0698	0.667
14.1096	0.65
14.1494	0.617
14.1892	0.574
14.2289	0.529
14.2687	0.486
14.3085	0.453
14.3483	0.403
14.3881	0.367
14.4279	0.326
14.4677	0.298
14.5075	0.256
14.5473	0.238
14.5871	0.228
14.6269	0.23
14.6667	0.235
14.7064	0.269
14.7462	0.271
14.786	0.298
14.8258	0.341
14.8656	0.382
14.9054	0.403
14.9452	0.435
14.985	0.466
15.0248	0.478
15.0646	0.501
15.1044	0.513
15.1441	0.536
15.1839	0.546
15.2237	0.556
15.2635	0.566
15.3033	0.577
15.3431	0.581
15.3829	0.594
15.4227	0.596
15.4625	0.599
15.5023	0.605
15.5421	0.615
15.5819	0.615
15.6216	0.615
15.6614	0.615
15.7012	0.617
15.741	0.619
15.7808	0.619
15.8206	0.619
15.8604	0.615
15.9002	0.614
15.94	0.614
15.9798	0.615
