Infrared Spectrum: 7-Methyl-3-octene
Formula: C 9 H 18
CAS: 86668-33-9
State: gas
Instrument: HP-GC/MS/IRD
Origin: NIST Mass Spectrometry Data Center
1/CM	ABSORBANCE
550	3.24e-05
562	5.4e-06
574	0.0001026
586	0.0002133
598	0.0001593
610	0.0001377
622	0.000108
634	0.0001512
646	0.0001485
658	9.72e-05
670	0.0001296
682	0.0002565
694	0.0001674
706	0.0001647
718	0.0001647
730	0.0001917
742	0.0002889
754	0.0002835
766	0.0003672
778	0.0003672
790	0.0003591
802	0.0002997
814	0.0002889
826	0.000378
838	0.0004131
850	0.0004509
862	0.0004266
874	0.0004671
886	0.0005265
898	0.0006075
910	0.0006696
922	0.0008667
934	0.0012663
946	0.0020979
958	0.0035883
970	0.0038367
982	0.002241
994	0.0011664
1006	0.0007452
1018	0.0005967
1030	0.0005454
1042	0.0006102
1054	0.0008505
1066	0.00081
1078	0.0007695
1090	0.0006264
1102	0.0005292
1114	0.0005076
1126	0.0004455
1138	0.000459
1150	0.0005292
1162	0.0007965
1174	0.0007074
1186	0.0003996
1198	0.0003456
1210	0.0003915
1222	0.0003483
1234	0.0003861
1246	0.000432
1258	0.0004131
1270	0.0005049
1282	0.0007614
1294	0.0009828
1306	0.0010746
1318	0.0011043
1330	0.0011988
1342	0.0012825
1354	0.0013986
1366	0.0017496
1378	0.0021519
1390	0.0020952
1402	0.0010989
1414	0.0008559
1426	0.0010935
1438	0.0017874
1450	0.0025623
1462	0.0031914
1474	0.0027486
1486	0.0014283
1498	0.0007182
1510	0.0004752
1522	0.0003267
1534	0.0002538
1546	0.0002187
1558	0.0001836
1570	0.000162
1582	0.0001377
1594	0.0001593
1606	0.0001701
1618	0.0001458
1630	0.0001431
1642	0.0001566
1654	0.0001863
1666	0.000189
1678	0.0001863
1690	0.0002079
1702	0.0001782
1714	0.0001809
1726	0.0001647
1738	0.0001674
1750	0.0001782
1762	0.0001782
1774	0.0002187
1786	0.0001917
1798	0.0001647
1810	0.0001134
1822	0.0001161
1834	8.91e-05
1846	7.83e-05
1858	8.1e-05
1870	8.91e-05
1882	7.56e-05
1894	4.05e-05
1906	5.4e-05
1918	4.59e-05
1930	4.86e-05
1942	5.13e-05
1954	4.32e-05
1966	3.24e-05
1978	4.86e-05
1990	3.51e-05
2002	2.43e-05
2014	3.24e-05
2026	3.51e-05
2038	4.32e-05
2050	5.67e-05
2062	1.89e-05
2074	1.08e-05
2086	3.78e-05
2098	2.43e-05
2110	5.4e-06
2122	1.62e-05
2134	4.32e-05
2146	2.43e-05
2158	2.16e-05
2170	3.51e-05
2182	3.24e-05
2194	1.89e-05
2206	4.05e-05
2218	3.78e-05
2230	2.16e-05
2242	8.1e-06
2254	2.43e-05
2266	3.24e-05
2278	4.05e-05
2290	4.59e-05
2302	4.32e-05
2314	2.43e-05
2326	2.7e-05
2338	4.05e-05
2350	4.05e-05
2362	8.1e-05
2374	8.1e-05
2386	7.02e-05
2398	9.18e-05
2410	9.72e-05
2422	7.56e-05
2434	8.37e-05
2446	6.21e-05
2458	6.21e-05
2470	7.83e-05
2482	3.51e-05
2494	7.83e-05
2506	8.37e-05
2518	8.37e-05
2530	0.0001053
2542	0.0001296
2554	0.0001539
2566	0.0001512
2578	0.0001512
2590	0.0001782
2602	0.0002052
2614	0.0002133
2626	0.0002295
2638	0.0002403
2650	0.000243
2662	0.0002565
2674	0.0002673
2686	0.0002835
2698	0.0003105
2710	0.0003456
2722	0.0004455
2734	0.0005022
2746	0.0005103
2758	0.0005373
2770	0.0006264
2782	0.0006993
2794	0.0008181
2806	0.0010152
2818	0.0013635
2830	0.0020331
2842	0.0036423
2854	0.0062991
2866	0.0081783
2878	0.010098
2890	0.0108567
2902	0.0124821
2914	0.016389
2926	0.0183303
2938	0.0185085
2950	0.019089
2962	0.0256635
2974	0.0224829
2986	0.0100359
2998	0.0054351
3010	0.0037827
3022	0.0030483
3034	0.0023328
3046	0.0015849
3058	0.0011826
3070	0.0009045
3082	0.0007938
3094	0.0006588
3106	0.0006318
3118	0.000567
3130	0.0005589
3142	0.0004806
3154	0.0004887
3166	0.0004644
3178	0.0004617
3190	0.0003321
3202	0.0003132
3214	0.00027
3226	0.0002079
3238	0.0001782
3250	0.0001512
3262	0.0001512
3274	0.0001269
3286	0.0001053
3298	0.000108
3310	0.0001026
3322	0.0001161
3334	9.99e-05
3346	0.0001215
3358	0.0001269
3370	0.0001215
3382	0.000108
3394	9.18e-05
3406	6.21e-05
3418	7.02e-05
3430	4.86e-05
3442	8.91e-05
3454	0.0001296
3466	7.83e-05
3478	3.78e-05
3490	7.02e-05
3502	1.08e-05
3514	5.4e-05
3526	3.78e-05
3538	1.89e-05
3550	6.21e-05
3562	5.67e-05
3574	3.24e-05
3586	3.51e-05
3598	3.24e-05
3610	4.32e-05
3622	4.05e-05
3634	4.59e-05
3646	4.59e-05
3658	0.0001053
3670	5.4e-05
3682	5.4e-05
3694	8.37e-05
3706	5.67e-05
3718	0.0001026
3730	6.48e-05
3742	8.91e-05
3754	6.48e-05
3766	6.75e-05
3778	7.56e-05
3790	8.37e-05
3802	9.72e-05
3814	7.83e-05
3826	8.64e-05
3838	0.0001107
