Infrared Spectrum: CHLOROTHIOLACETIC ACID
Formula: C2 H3 Cl O S
CAS: 867-49-2
State: LIQUID
Boiling point: 51-56 C AT 20 mmHg
Class: COBLENTZ
Instrument: Not specified, most likely a prism, grating, or hybrid spectrometer.
Sampling: TRANSMISSION
Path length: CAPILLARY FILM
Resolution: 4
MICROMETERS	TRANSMITTANCE
2.04	0.823
2.0733	0.829
2.1066	0.829
2.1399	0.828
2.1732	0.827
2.2065	0.831
2.23979	0.832
2.27309	0.837
2.30639	0.841
2.33969	0.844
2.37299	0.849
2.40629	0.852
2.43959	0.853
2.47289	0.853
2.50619	0.855
2.53949	0.856
2.57278	0.857
2.60608	0.857
2.63938	0.857
2.67268	0.856
2.70598	0.857
2.73928	0.86
2.77258	0.857
2.80588	0.845
2.83918	0.831
2.87248	0.829
2.90577	0.839
2.93907	0.857
2.97237	0.868
3.00567	0.871
3.03897	0.869
3.07227	0.873
3.10557	0.872
3.13887	0.868
3.17217	0.86
3.20547	0.835
3.23876	0.75
3.27206	0.768
3.30536	0.706
3.33866	0.788
3.37196	0.885
3.40526	0.893
3.43856	0.898
3.47186	0.897
3.50516	0.893
3.53846	0.898
3.57176	0.902
3.60505	0.906
3.63835	0.905
3.67165	0.897
3.70495	0.892
3.73825	0.876
3.77155	0.844
3.80485	0.659
3.83815	0.527
3.87145	0.627
3.90475	0.787
3.93804	0.855
3.97134	0.882
4.00464	0.901
4.03794	0.909
4.07124	0.92
4.10454	0.932
4.13784	0.904
4.17114	0.898
4.20444	0.902
4.23774	0.922
4.27103	0.929
4.30433	0.933
4.33763	0.933
4.37093	0.941
4.40423	0.942
4.43753	0.942
4.47083	0.944
4.50413	0.946
4.53743	0.946
4.57073	0.948
4.60402	0.949
4.63732	0.949
4.67062	0.952
4.70392	0.952
4.73722	0.952
4.77052	0.95
4.80382	0.952
4.83712	0.95
4.87042	0.95
4.90372	0.95
4.93702	0.953
4.97031	0.957
5.00361	0.954
5.03691	0.952
5.07021	0.949
5.10351	0.945
5.13681	0.942
5.17011	0.944
5.20341	0.945
5.23671	0.946
5.27001	0.948
5.3033	0.949
5.3366	0.949
5.3699	0.948
5.4032	0.942
5.4365	0.934
5.4698	0.921
5.5031	0.888
5.5364	0.839
5.5697	0.775
5.603	0.687
5.63629	0.642
5.66959	0.527
5.70289	0.414
5.73619	0.287
5.76949	0.136
5.80279	0.037
5.83609	0.029
5.86939	0.038
5.90269	0.093
5.93599	0.162
5.96928	0.402
6.00258	0.61
6.03588	0.738
6.06918	0.797
6.10248	0.855
6.13578	0.88
6.16908	0.906
6.20238	0.924
6.23568	0.936
6.26898	0.945
6.30228	0.952
6.33557	0.952
6.36887	0.949
6.40217	0.954
6.43547	0.956
6.46877	0.96
6.50207	0.958
6.53537	0.957
6.56867	0.957
6.60197	0.957
6.63527	0.958
6.66856	0.96
6.70186	0.96
6.73516	0.957
6.76846	0.954
6.80176	0.953
6.83506	0.949
6.86836	0.945
6.90166	0.937
6.93496	0.922
6.96826	0.894
7.00155	0.836
7.03485	0.764
7.06815	0.619
7.10145	0.573
7.13475	0.7
7.16805	0.783
7.20135	0.853
7.23465	0.888
7.26795	0.913
7.30125	0.929
7.33454	0.933
7.36784	0.936
7.40114	0.938
7.43444	0.94
7.46774	0.942
7.50104	0.948
7.53434	0.948
7.56764	0.946
7.60094	0.944
7.63424	0.928
7.66754	0.885
7.70083	0.861
7.73413	0.882
7.76743	0.908
7.80073	0.909
7.83403	0.877
7.86733	0.712
7.90063	0.674
7.93393	0.751
7.96723	0.828
8.00053	0.89
8.03382	0.922
8.06712	0.929
8.10042	0.93
8.13372	0.929
8.16702	0.921
8.20032	0.916
8.23362	0.908
8.26692	0.896
8.30022	0.876
8.33352	0.851
8.36681	0.801
8.40011	0.755
8.43341	0.742
8.46671	0.751
8.50001	0.773
8.53331	0.799
8.56661	0.824
8.59991	0.836
8.63321	0.841
8.66651	0.845
8.6998	0.843
8.7331	0.832
8.7664	0.821
8.7997	0.795
8.833	0.768
8.8663	0.718
8.8996	0.636
8.9329	0.545
8.9662	0.452
8.9995	0.36
9.0328	0.309
9.06609	0.305
9.09939	0.351
9.13269	0.417
9.16599	0.462
9.19929	0.513
9.23259	0.551
9.26589	0.57
9.29919	0.573
9.33249	0.562
9.36579	0.51
9.39908	0.416
9.43238	0.329
9.46568	0.288
9.49898	0.323
9.53228	0.386
9.56558	0.416
9.59888	0.377
9.63218	0.36
9.66548	0.368
9.69878	0.454
9.73207	0.547
9.76537	0.646
9.79867	0.734
9.83197	0.788
9.86527	0.821
9.89857	0.84
9.93187	0.856
9.96517	0.859
9.99847	0.864
10.0318	0.865
10.0651	0.872
10.0984	0.88
10.1317	0.885
10.165	0.894
10.1983	0.9
10.2316	0.904
10.2649	0.909
10.2982	0.913
10.3315	0.916
10.3648	0.917
10.3981	0.918
10.4314	0.918
10.4647	0.916
10.498	0.914
10.5313	0.913
10.5646	0.909
10.5978	0.905
10.6311	0.901
10.6644	0.897
10.6977	0.892
10.731	0.884
10.7643	0.875
10.7976	0.865
10.8309	0.856
10.8642	0.848
10.8975	0.836
10.9308	0.829
10.9641	0.819
10.9974	0.809
11.0307	0.8
11.064	0.793
11.0973	0.785
11.1306	0.779
11.1639	0.773
11.1972	0.771
11.2305	0.769
11.2638	0.767
11.2971	0.767
11.3304	0.768
11.3637	0.772
11.397	0.781
11.4303	0.791
11.4636	0.799
11.4969	0.813
11.5302	0.823
11.5635	0.837
11.5968	0.851
11.6301	0.863
11.6634	0.875
11.6967	0.886
11.73	0.9
11.7633	0.908
11.7966	0.914
11.8299	0.921
11.8632	0.93
11.8965	0.936
11.9298	0.938
11.9631	0.941
11.9964	0.941
12.0297	0.94
12.063	0.937
12.0963	0.933
12.1296	0.925
12.1629	0.917
12.1962	0.904
12.2295	0.898
12.2628	0.882
12.2961	0.859
12.3294	0.833
12.3627	0.811
12.396	0.772
12.4293	0.734
12.4626	0.678
12.4959	0.625
12.5292	0.579
12.5625	0.553
12.5958	0.55
12.6291	0.562
12.6624	0.583
12.6957	0.606
12.729	0.646
12.7623	0.678
12.7956	0.7
12.8289	0.72
12.8622	0.73
12.8955	0.736
12.9288	0.742
12.9621	0.748
12.9954	0.756
13.0287	0.76
13.062	0.763
13.0953	0.761
13.1286	0.76
13.1619	0.756
13.1952	0.75
13.2285	0.723
13.2618	0.694
13.2951	0.662
13.3284	0.595
13.3617	0.511
13.395	0.444
13.4283	0.352
13.4616	0.307
13.4949	0.269
13.5282	0.251
13.5615	0.247
13.5948	0.247
13.6281	0.25
13.6614	0.26
13.6947	0.28
13.728	0.296
13.7613	0.328
13.7946	0.376
13.8279	0.426
13.8612	0.473
13.8945	0.535
13.9278	0.591
13.9611	0.632
13.9943	0.68
14.0276	0.712
14.0609	0.74
14.0942	0.768
14.1275	0.793
14.1608	0.812
14.1941	0.827
14.2274	0.841
14.2607	0.851
14.294	0.859
14.3273	0.868
14.3606	0.876
14.3939	0.878
14.4272	0.884
14.4605	0.886
14.4938	0.888
14.5271	0.888
14.5604	0.888
14.5937	0.889
14.627	0.889
14.6603	0.889
14.6936	0.889
14.7269	0.888
14.7602	0.886
14.7935	0.884
14.8268	0.882
14.8601	0.88
14.8934	0.877
14.9267	0.869
14.96	0.856
14.9933	0.859
