Infrared Spectrum: p-Nitrophenyl nonyl ether
Formula: C 15 H 23 N O 3
CAS: 86702-46-7
State: gas
Origin: EPA-IR VAPOR PHASE LIBRARY
1/CM	ABSORBANCE
549.8	0.0011386
559.445	0.0007723
569.09	0.001201
578.734	0.001391
588.379	0.001491
598.024	0.002481
607.669	0.005661
617.313	0.009231
626.958	0.008401
636.603	0.010391
646.248	0.018561
655.893	0.017701
665.537	0.006841
675.182	0.007291
684.827	0.010801
694.472	0.008581
704.116	0.006341
713.761	0.005831
723.406	0.005881
733.051	0.006771
742.695	0.013321
752.34	0.019701
761.985	0.008691
771.63	0.004901
781.275	0.003881
790.919	0.003501
800.564	0.003811
810.209	0.004011
819.854	0.007151
829.498	0.016071
839.143	0.035561
848.788	0.050991
858.433	0.060921
868.078	0.027471
877.722	0.011291
887.367	0.007111
897.012	0.006141
906.657	0.006161
916.301	0.007341
925.946	0.008441
935.591	0.009031
945.236	0.008821
954.88	0.008421
964.525	0.010331
974.17	0.014491
983.815	0.019531
993.46	0.023911
1003.1	0.028871
1012.75	0.032991
1022.39	0.036641
1032.04	0.034581
1041.68	0.031321
1051.33	0.025571
1060.97	0.019131
1070.62	0.016121
1080.26	0.013391
1089.91	0.015001
1099.55	0.023671
1109.2	0.054511
1118.84	0.033681
1128.49	0.011251
1138.13	0.007111
1147.78	0.008481
1157.42	0.019381
1167.07	0.063421
1176.71	0.036201
1186.36	0.019521
1196	0.017271
1205.64	0.022951
1215.29	0.036791
1224.93	0.059411
1234.58	0.102111
1244.22	0.171791
1253.87	0.239541
1263.51	0.148191
1273.16	0.065431
1282.8	0.045231
1292.45	0.063461
1302.09	0.051501
1311.74	0.043031
1321.38	0.060631
1331.03	0.074061
1340.67	0.156581
1350.32	0.231411
1359.96	0.094351
1369.61	0.047681
1379.25	0.032701
1388.9	0.026971
1398.54	0.016391
1408.18	0.011931
1417.83	0.011911
1427.47	0.013831
1437.12	0.018501
1446.76	0.024381
1456.41	0.033541
1466.05	0.048811
1475.7	0.060081
1485.34	0.058161
1494.99	0.134851
1504.63	0.086751
1514.28	0.056351
1523.92	0.093601
1533.57	0.148701
1543.21	0.103141
1552.86	0.051331
1562.5	0.033201
1572.15	0.034721
1581.79	0.068931
1591.44	0.152581
1601.08	0.128081
1610.73	0.073861
1620.37	0.033741
1630.01	0.014311
1639.66	0.008731
1649.3	0.006611
1658.95	0.005001
1668.59	0.003701
1678.24	0.002871
1687.88	0.002581
1697.53	0.002181
1707.17	0.001971
1716.82	0.001771
1726.46	0.001931
1736.11	0.002111
1745.75	0.002531
1755.4	0.003361
1765.04	0.003331
1774.69	0.002071
1784.33	0.001831
1793.98	0.001821
1803.62	0.001671
1813.27	0.001451
1822.91	0.001291
1832.55	0.00115
1842.2	0.0011081
1851.84	0.001281
1861.49	0.001571
1871.13	0.001881
1880.78	0.002451
1890.42	0.003061
1900.07	0.003321
1909.71	0.003091
1919.36	0.002521
1929	0.001811
1938.65	0.001581
1948.29	0.001581
1957.94	0.001711
1967.58	0.001961
1977.23	0.001931
1986.87	0.001731
1996.52	0.001861
2006.16	0.002161
2015.81	0.002491
2025.45	0.002381
2035.1	0.002501
2044.74	0.002441
2054.38	0.002251
2064.03	0.001981
2073.67	0.001691
2083.32	0.001461
2092.96	0.001461
2102.61	0.001501
2112.25	0.001731
2121.9	0.001521
2131.54	0.0011686
2141.19	0.0009036
2150.83	0.0008969
2160.48	0.000846
2170.12	0.0007417
2179.77	0.0007341
2189.41	0.0007807
2199.06	0.0009002
2208.7	0.0009974
2218.35	0.0011008
2227.99	0.0011657
2237.64	0.0008561
2247.28	0.0009142
2256.92	0.0009811
2266.57	0.0010703
2276.21	0.0011141
2285.86	0.0011265
2295.5	0.0010293
2305.15	0.0010721
2314.79	0.0009956
2324.44	0.0009813
2334.08	0.0011085
2343.73	0.0011409
2353.37	0.0011332
2363.02	0.001211
2372.66	0.001431
2382.31	0.001461
2391.95	0.001551
2401.6	0.001711
2411.24	0.001631
2420.89	0.001691
2430.53	0.001791
2440.18	0.002161
2449.82	0.002981
2459.47	0.003281
2469.11	0.002671
2478.75	0.002341
2488.4	0.002321
2498.04	0.002461
2507.69	0.002451
2517.33	0.002171
2526.98	0.002131
2536.62	0.002511
2546.27	0.002951
2555.91	0.002951
2565.56	0.002981
2575.2	0.003141
2584.85	0.003021
2594.49	0.002901
2604.14	0.002871
2613.78	0.002991
2623.43	0.002741
2633.07	0.002811
2642.72	0.002791
2652.36	0.002741
2662.01	0.002701
2671.65	0.002991
2681.29	0.002911
2690.94	0.003151
2700.58	0.003231
2710.23	0.003261
2719.87	0.003081
2729.52	0.003341
2739.16	0.003751
2748.81	0.004191
2758.45	0.004121
2768.1	0.004221
2777.74	0.004391
2787.39	0.005041
2797.03	0.005831
2806.68	0.006771
2816.32	0.008611
2825.97	0.011441
2835.61	0.016101
2845.26	0.026401
2854.9	0.051251
2864.55	0.079021
2874.19	0.070951
2883.84	0.062441
2893.48	0.056071
2903.12	0.064371
2912.77	0.091181
2922.41	0.141981
2932.06	0.202341
2941.7	0.187891
2951.35	0.134051
2960.99	0.103281
2970.64	0.088821
2980.28	0.047761
2989.93	0.024801
2999.57	0.015241
3009.22	0.010491
3018.86	0.008001
3028.51	0.006461
3038.15	0.005441
3047.8	0.004931
3057.44	0.004801
3067.09	0.005061
3076.73	0.006131
3086.38	0.008951
3096.02	0.007531
3105.67	0.003041
3115.31	0.002411
3124.95	0.001761
3134.6	0.001471
3144.24	0.001411
3153.89	0.001311
3163.53	0.001221
3173.18	0.0011779
3182.82	0.001461
3192.47	0.001381
3202.11	0.001461
3211.76	0.001411
3221.4	0.0011269
3231.05	0.0006761
3240.69	0.0005093
3250.34	0.0004986
3259.98	0.0004589
3269.63	0.0004396
3279.27	0.0004445
3288.92	0.0004337
3298.56	0.0004089
3308.21	0.0006222
3317.85	0.0003874
3327.49	0.0004475
3337.14	0.00021771
3346.78	0.0005258
3356.43	0.000546
3366.07	0.0004178
3375.72	0.0003219
3385.36	0.0003501
3395.01	0.00025247
3404.65	0.0002848
3414.3	0.00026936
3423.94	0.0003967
3433.59	0.0004129
3443.23	0.0003642
3452.88	0.0002838
3462.52	0.0001486
3472.17	3.9e-05
3481.81	0.0001255
3491.46	0.0001911
3501.1	0.0003058
3510.75	0.00026017
3520.39	0.0002824
3530.04	0.000185582
3539.68	0.0003074
3549.32	0.00045
3558.97	0.00023377
3568.61	0.0001608
3578.26	0.0003871
3587.9	0.0001679
3597.55	0.0003215
3607.19	0.0001168
3616.84	0.0005522
3626.48	0.000385
3636.13	0.0005625
3645.77	0.0004708
3655.42	0.0003052
3665.06	0.000557
3674.71	0.0004699
3684.35	0.0005553
3694	0.0006394
3703.64	0.0004869
3713.29	0.0008221
3722.93	0.000618
3732.58	0.0006237
3742.22	0.0005275
3751.86	0.0005565
3761.51	0.0004588
3771.15	0.0005821
3780.8	0.0007312
3790.44	0.0005967
3800.09	0.0005418
3809.73	0.0004172
3819.38	0.0006369
3829.02	0.0004022
3838.67	0.0006773
3848.31	0.0007855
3857.96	0.000729
3867.6	0.0006921
3877.25	0.0007954
3886.89	0.0006004
3896.54	0.000688
3906.18	0.0009307
3915.83	0.0005552
3925.47	0.0009578
3935.12	0.0008466
3944.76	0.0008288
3954.41	0.0008543
3964.05	0.0006218
3973.69	0.0008212
3983.34	0.0009215
3992.98	0.0009842
