Infrared Spectrum: 3-CARBETHOXY-2,5-PIPERAZINEDIONE
Formula: C7 H10 N2 O4
CAS: 86750-34-7
State: SOLID (NUJOL MULL)
Class: COBLENTZ
Instrument: PERKIN-ELMER
Sampling: TRANSMISSION
Resolution: 4
Origin: ABBOTT LABORATORIES - WASHBURN
MICROMETERS	TRANSMITTANCE
2.047	0.715
2.087	0.722
2.127	0.727
2.16701	0.734
2.20701	0.734
2.24701	0.744
2.28701	0.7341
2.32701	0.7195
2.36702	0.709
2.40702	0.7201
2.44702	0.734
2.48702	0.737
2.52702	0.7545
2.56702	0.762
2.60703	0.772
2.64703	0.774
2.68703	0.785
2.72703	0.79
2.76703	0.7873
2.80704	0.7919
2.84704	0.785
2.88704	0.779
2.92704	0.7799
2.96704	0.7419
3.00705	0.6412
3.04705	0.5226
3.08705	0.3051
3.12705	0.2623
3.16705	0.3089
3.20705	0.3249
3.24706	0.312
3.28706	0.352
3.32706	0.251
3.36706	0.0578
3.40706	0.0129
3.44707	0.019
3.48707	0.023
3.52707	0.4281
3.56707	0.5929
3.60707	0.6492
3.64708	0.664
3.68708	0.682
3.72708	0.6963
3.76708	0.7123
3.80708	0.732
3.84709	0.7421
3.88709	0.754
3.92709	0.7704
3.96709	0.7868
4.00709	0.7839
4.04709	0.782
4.0871	0.792
4.1271	0.797
4.1671	0.7991
4.2071	0.808
4.2471	0.813
4.28711	0.812
4.32711	0.818
4.36711	0.822
4.40711	0.823
4.44711	0.822
4.48712	0.823
4.52712	0.8271
4.56712	0.8332
4.60712	0.84
4.64712	0.842
4.68712	0.84
4.72713	0.8402
4.76713	0.8452
4.80713	0.8448
4.84713	0.848
4.88713	0.848
4.92714	0.852
4.96714	0.8532
5.00714	0.8549
5.04714	0.84
5.08714	0.848
5.12715	0.838
5.16715	0.84
5.20715	0.8385
5.24715	0.8206
5.28715	0.822
5.32715	0.8125
5.36716	0.8036
5.40716	0.7974
5.44716	0.773
5.48716	0.7398
5.52716	0.6865
5.56717	0.6162
5.60717	0.5185
5.64717	0.3129
5.68717	0.1871
5.72717	0.1976
5.76718	0.4019
5.80718	0.4373
5.84718	0.2868
5.88718	0.1195
5.92718	0.1093
5.96719	0.093
6.00719	0.1274
6.04719	0.1739
6.08719	0.2335
6.12719	0.3199
6.16719	0.4098
6.2072	0.4673
6.2472	0.5048
6.2872	0.5422
6.3272	0.559
6.3672	0.5701
6.40721	0.5859
6.44721	0.6115
6.48721	0.632
6.52721	0.642
6.56721	0.645
6.60722	0.6165
6.64722	0.5489
6.68722	0.5811
6.72722	0.5694
6.76722	0.3397
6.80722	0.1187
6.84723	0.071
6.88723	0.0911
6.92723	0.1255
6.96723	0.2268
7.00723	0.4066
7.04724	0.4798
7.08724	0.5822
7.12724	0.599
7.16724	0.4749
7.20724	0.463
7.24725	0.355
7.28725	0.3889
7.32725	0.4119
7.36725	0.5704
7.40725	0.5937
7.44726	0.5971
7.48726	0.4342
7.52726	0.3451
7.56726	0.4668
7.60726	0.5433
7.64726	0.4752
7.68727	0.5273
7.72727	0.553
7.76727	0.5933
7.80727	0.601
7.84727	0.5556
7.88728	0.4677
7.92728	0.3188
7.96728	0.1987
8.00728	0.1836
8.04728	0.2363
8.08729	0.3134
8.12729	0.2421
8.16729	0.169
8.20729	0.2538
8.24729	0.4408
8.28729	0.504
8.3273	0.5641
8.3673	0.6018
8.4073	0.6309
8.4473	0.6506
8.4873	0.666
8.52731	0.664
8.56731	0.66
8.60731	0.6167
8.64731	0.5321
8.68731	0.47
8.72732	0.5301
8.76732	0.6259
8.80732	0.6741
8.84732	0.674
8.88732	0.6095
8.92733	0.4995
8.96733	0.2872
9.00733	0.3103
9.04733	0.5212
9.08733	0.63
9.12733	0.6606
9.16734	0.6587
9.20734	0.5533
9.24734	0.376
9.28734	0.3199
9.32734	0.3141
9.36735	0.4663
9.40735	0.5641
9.44735	0.6058
9.48735	0.5803
9.52735	0.588
9.56736	0.6184
9.60736	0.6179
9.64736	0.5686
9.68736	0.478
9.72736	0.4269
9.76736	0.4263
9.80737	0.5166
9.84737	0.6106
9.88737	0.6493
9.92737	0.6742
9.96737	0.676
10.0074	0.656
10.0474	0.5654
10.0874	0.4638
10.1274	0.4851
10.1674	0.6059
10.2074	0.6581
10.2474	0.6765
10.2874	0.6801
10.3274	0.6559
10.3674	0.5881
10.4074	0.554
10.4474	0.5915
10.4874	0.6411
10.5274	0.6756
10.5674	0.697
10.6074	0.7108
10.6474	0.715
10.6874	0.7055
10.7274	0.709
10.7674	0.719
10.8074	0.735
10.8474	0.7417
10.8874	0.745
10.9274	0.745
10.9674	0.747
11.0074	0.747
11.0474	0.745
11.0874	0.742
11.1274	0.7341
11.1674	0.7127
11.2074	0.6922
11.2474	0.6384
11.2874	0.485
11.3274	0.3994
11.3674	0.4818
11.4074	0.516
11.4474	0.4474
11.4874	0.3259
11.5274	0.5294
11.5674	0.5961
11.6075	0.6258
11.6475	0.627
11.6875	0.622
11.7275	0.6098
11.7675	0.5901
11.8075	0.5757
11.8475	0.5485
11.8875	0.538
11.9275	0.5297
11.9675	0.5022
12.0075	0.4585
12.0475	0.4162
12.0875	0.3473
12.1275	0.3
12.1675	0.24
12.2075	0.229
12.2475	0.2331
12.2875	0.2498
12.3275	0.2682
12.3675	0.2946
12.4075	0.3458
12.4475	0.3928
12.4875	0.4238
12.5275	0.4403
12.5675	0.4357
12.6075	0.433
12.6475	0.4409
12.6875	0.4361
12.7275	0.4261
12.7675	0.4164
12.8075	0.411
12.8475	0.408
12.8875	0.414
12.9275	0.438
12.9675	0.4597
13.0075	0.4869
13.0475	0.5069
13.0875	0.5265
13.1275	0.5437
13.1675	0.5592
13.2075	0.576
13.2475	0.586
13.2875	0.589
13.3275	0.5976
13.3675	0.598
13.4075	0.6063
13.4475	0.604
13.4875	0.607
13.5275	0.609
13.5675	0.598
13.6075	0.6025
13.6475	0.6085
13.6875	0.606
13.7276	0.5979
13.7676	0.593
13.8076	0.596
13.8476	0.5957
13.8876	0.6118
13.9276	0.6285
13.9676	0.6384
14.0076	0.6481
14.0476	0.6581
14.0876	0.662
14.1276	0.664
14.1676	0.6675
14.2076	0.672
14.2476	0.6688
14.2876	0.674
14.3276	0.671
14.3676	0.6711
14.4076	0.6694
14.4476	0.671
14.4876	0.669
14.5276	0.6701
14.5676	0.6625
14.6076	0.657
14.6476	0.6602
14.6876	0.657
14.7276	0.657
14.7676	0.6506
14.8076	0.6388
14.8476	0.634
14.8876	0.622
14.9276	0.619
14.9676	0.621
15.0076	0.6212
15.0476	0.617
15.0876	0.616
15.1276	0.6129
15.1676	0.6049
15.2076	0.6015
15.2476	0.5978
15.2876	0.5972
15.3276	0.592
15.3676	0.584
15.4076	0.5839
15.4476	0.5807
