Infrared Spectrum: Methyl 4-chloro-2,2-dimethyl-4-pentenoate
Formula: C8 H13 Cl O2
CAS: 86799-85-1
State: gas
Origin: EPA-IR VAPOR PHASE LIBRARY
1/CM	ABSORBANCE
549.8	0.002397
559.445	0.001547
569.09	0.0012542
578.734	0.002257
588.379	0.004677
598.024	0.006157
607.669	0.005507
617.313	0.005617
626.958	0.008477
636.603	0.006627
646.248	0.006187
655.893	0.009237
665.537	0.010517
675.182	0.007077
684.827	0.004127
694.472	0.004187
704.116	0.004597
713.761	0.003287
723.406	0.001977
733.051	0.001517
742.695	0.001577
752.34	0.001857
761.985	0.003987
771.63	0.007047
781.275	0.005517
790.919	0.004227
800.564	0.004557
810.209	0.003127
819.854	0.002657
829.498	0.003567
839.143	0.006877
848.788	0.012527
858.433	0.015327
868.078	0.015677
877.722	0.027847
887.367	0.040177
897.012	0.025497
906.657	0.009907
916.301	0.005207
925.946	0.004227
935.591	0.004327
945.236	0.004867
954.88	0.004627
964.525	0.004587
974.17	0.006447
983.815	0.009787
993.46	0.012657
1003.1	0.011267
1012.75	0.008247
1022.39	0.007887
1032.04	0.005817
1041.68	0.004257
1051.33	0.003957
1060.97	0.004357
1070.62	0.005367
1080.26	0.007807
1089.91	0.013067
1099.55	0.022077
1109.2	0.033457
1118.84	0.050757
1128.49	0.087227
1138.13	0.135057
1147.78	0.147787
1157.42	0.131367
1167.07	0.105057
1176.71	0.080237
1186.36	0.070347
1196	0.065087
1205.64	0.058577
1215.29	0.055227
1224.93	0.054007
1234.58	0.057397
1244.22	0.059727
1253.87	0.050297
1263.51	0.031817
1273.16	0.019987
1282.8	0.016697
1292.45	0.019297
1302.09	0.024097
1311.74	0.022187
1321.38	0.016737
1331.03	0.012217
1340.67	0.009277
1350.32	0.008327
1359.96	0.009827
1369.61	0.014427
1379.25	0.015747
1388.9	0.017917
1398.54	0.018277
1408.18	0.012687
1417.83	0.011267
1427.47	0.017637
1437.12	0.028037
1446.76	0.025407
1456.41	0.023757
1466.05	0.029477
1475.7	0.032177
1485.34	0.019507
1494.99	0.008417
1504.63	0.005347
1514.28	0.004347
1523.92	0.004247
1533.57	0.004487
1543.21	0.004597
1552.86	0.004227
1562.5	0.003987
1572.15	0.004007
1581.79	0.004347
1591.44	0.005517
1601.08	0.007977
1610.73	0.013617
1620.37	0.025747
1630.01	0.031867
1639.66	0.020177
1649.3	0.009037
1658.95	0.005547
1668.59	0.004397
1678.24	0.004417
1687.88	0.005917
1697.53	0.009207
1707.17	0.014597
1716.82	0.023217
1726.46	0.037997
1736.11	0.074607
1745.75	0.135497
1755.4	0.142007
1765.04	0.072337
1774.69	0.029537
1784.33	0.015437
1793.98	0.009217
1803.62	0.005887
1813.27	0.003857
1822.91	0.002687
1832.55	0.002027
1842.2	0.001617
1851.84	0.001377
1861.49	0.0012205
1871.13	0.0012023
1880.78	0.0011189
1890.42	0.001132
1900.07	0.0011253
1909.71	0.0012222
1919.36	0.0013013
1929	0.001447
1938.65	0.001547
1948.29	0.001857
1957.94	0.002057
1967.58	0.002227
1977.23	0.002207
1986.87	0.001977
1996.52	0.001807
2006.16	0.001617
2015.81	0.001447
2025.45	0.001377
2035.1	0.0012685
2044.74	0.0011961
2054.38	0.0010463
2064.03	0.0011495
2073.67	0.0012222
2083.32	0.0013503
2092.96	0.001397
2102.61	0.0013284
2112.25	0.0012726
2121.9	0.0011941
2131.54	0.0011135
2141.19	0.0011398
2150.83	0.0010104
2160.48	0.0009852
2170.12	0.0009055
2179.77	0.0008261
2189.41	0.0007104
2199.06	0.0005722
2208.7	0.0005754
2218.35	0.0005972
2227.99	0.0005722
2237.64	0.0005716
2247.28	0.0006161
2256.92	0.0007193
2266.57	0.0006783
2276.21	0.0007466
2285.86	0.0008247
2295.5	0.0006914
2305.15	0.000694
2314.79	0.0007944
2324.44	0.0007627
2334.08	0.000802
2343.73	0.0006878
2353.37	0.0006869
2363.02	0.0007533
2372.66	0.0006503
2382.31	0.0006801
2391.95	0.0007219
2401.6	0.0006009
2411.24	0.0006826
2420.89	0.0007342
2430.53	0.000686
2440.18	0.0006145
2449.82	0.0005452
2459.47	0.0005615
2469.11	0.0005798
2478.75	0.0005276
2488.4	0.0005291
2498.04	0.0004873
2507.69	0.0006287
2517.33	0.0006683
2526.98	0.0007156
2536.62	0.0007361
2546.27	0.0007578
2555.91	0.0007747
2565.56	0.0007922
2575.2	0.0008107
2584.85	0.0009902
2594.49	0.0009319
2604.14	0.0009941
2613.78	0.00096
2623.43	0.0008607
2633.07	0.0008496
2642.72	0.0008091
2652.36	0.0009352
2662.01	0.0007931
2671.65	0.0006766
2681.29	0.0008171
2690.94	0.0007429
2700.58	0.00069
2710.23	0.000845
2719.87	0.0009363
2729.52	0.0011035
2739.16	0.0013048
2748.81	0.001345
2758.45	0.0012845
2768.1	0.0011892
2777.74	0.0012547
2787.39	0.0013314
2797.03	0.001497
2806.68	0.001787
2816.32	0.002477
2825.97	0.003487
2835.61	0.005447
2845.26	0.008207
2854.9	0.008377
2864.55	0.007617
2874.19	0.010957
2883.84	0.015367
2893.48	0.016757
2903.12	0.017337
2912.77	0.021177
2922.41	0.027377
2932.06	0.033487
2941.7	0.040087
2951.35	0.051897
2960.99	0.057937
2970.64	0.051057
2980.28	0.056777
2989.93	0.052577
2999.57	0.035017
3009.22	0.020267
3018.86	0.012947
3028.51	0.010127
3038.15	0.007717
3047.8	0.005707
3057.44	0.004467
3067.09	0.003507
3076.73	0.003257
3086.38	0.003247
3096.02	0.003387
3105.67	0.004187
3115.31	0.004827
3124.95	0.003177
3134.6	0.001887
3144.24	0.001687
3153.89	0.001497
3163.53	0.001477
3173.18	0.0012496
3182.82	0.0010676
3192.47	0.0012924
3202.11	0.0012046
3211.76	0.0011458
3221.4	0.0012013
3231.05	0.0010873
3240.69	0.0008464
3250.34	0.0008042
3259.98	0.0008528
3269.63	0.0007461
3279.27	0.0007078
3288.92	0.0007133
3298.56	0.00036916
3308.21	0.0004822
3317.85	0.0003135
3327.49	0.000525
3337.14	0.0005254
3346.78	0.0003763
3356.43	0.0006424
3366.07	0.000519
3375.72	0.0005326
3385.36	0.0005595
3395.01	0.000546
3404.65	0.0005376
3414.3	0.000362782
3423.94	0.0005931
3433.59	0.0006752
3443.23	0.0007438
3452.88	0.0008565
3462.52	0.00113
3472.17	0.001597
3481.81	0.001867
3491.46	0.001487
3501.1	0.0011199
3510.75	0.000794
3520.39	0.0005977
3530.04	0.0004873
3539.68	0.0004927
3549.32	0.0004024
3558.97	0.0003415
3568.61	0.0004612
3578.26	0.000249
3587.9	0.0002693
3597.55	0.000176
3607.19	0.0002918
3616.84	0.000113
3626.48	0.000152
3636.13	0.000313
3645.77	0.000277
3655.42	0.00037414
3665.06	0.0003449
3674.71	0.0003261
3684.35	0.0002839
3694	0.0002676
3703.64	0.0003052
3713.29	0.0002694
3722.93	0.000103
3732.58	0.0003211
3742.22	0.00042462
3751.86	0.000357164
3761.51	0.00040357
3771.15	0.0003407
3780.8	0.000326
3790.44	0.0004863
3800.09	0.000179
3809.73	0.00025
3819.38	0.0002855
3829.02	0.0004714
3838.67	0.00037434
3848.31	0.000361099
3857.96	0.0003061
3867.6	0.0003166
3877.25	0.0005063
3886.89	0.0004843
3896.54	0.0004921
3906.18	0.00044504
3915.83	0.00042252
3925.47	0.000577
3935.12	0.00043095
3944.76	0.0004739
3954.41	0.0006035
3964.05	0.0007714
3973.69	0.00043474
3983.34	0.00043098
3992.98	0.0005782
