Infrared Spectrum: Dimethyl 2,2'-dibromoadipate
Formula: C 8 H 12 Br 2 O 4
CAS: 868-72-4
State: gas
Origin: EPA-IR VAPOR PHASE LIBRARY
1/CM	ABSORBANCE
549.8	0.00142
559.445	0.00159
569.09	0.00181
578.734	0.0017
588.379	0.00187
598.024	0.00203
607.669	0.00207
617.313	0.00149
626.958	0.00173
636.603	0.00176
646.248	0.00254
655.893	0.00276
665.537	0.00382
675.182	0.00503
684.827	0.00529
694.472	0.00459
704.116	0.00439
713.761	0.00393
723.406	0.00298
733.051	0.00309
742.695	0.0031
752.34	0.00338
761.985	0.00344
771.63	0.00345
781.275	0.004
790.919	0.00433
800.564	0.0044
810.209	0.00406
819.854	0.00395
829.498	0.00407
839.143	0.00408
848.788	0.00403
858.433	0.00359
868.078	0.00296
877.722	0.00316
887.367	0.00297
897.012	0.00288
906.657	0.00186
916.301	0.00181
925.946	0.00157
935.591	0.00167
945.236	0.00226
954.88	0.00293
964.525	0.00436
974.17	0.007
983.815	0.00926
993.46	0.01054
1003.1	0.01215
1012.75	0.01223
1022.39	0.01343
1032.04	0.0139
1041.68	0.01291
1051.33	0.01071
1060.97	0.00955
1070.62	0.00896
1080.26	0.00879
1089.91	0.00775
1099.55	0.0077
1109.2	0.00846
1118.84	0.01242
1128.49	0.02148
1138.13	0.03808
1147.78	0.05872
1157.42	0.06199
1167.07	0.05085
1176.71	0.04104
1186.36	0.03775
1196	0.03895
1205.64	0.04068
1215.29	0.04097
1224.93	0.04268
1234.58	0.0455
1244.22	0.04507
1253.87	0.04904
1263.51	0.05688
1273.16	0.05421
1282.8	0.04035
1292.45	0.03048
1302.09	0.02467
1311.74	0.01878
1321.38	0.01601
1331.03	0.01548
1340.67	0.01612
1350.32	0.01678
1359.96	0.01508
1369.61	0.01118
1379.25	0.00784
1388.9	0.00523
1398.54	0.00413
1408.18	0.00433
1417.83	0.00506
1427.47	0.00825
1437.12	0.02385
1446.76	0.02141
1456.41	0.01152
1466.05	0.00652
1475.7	0.00461
1485.34	0.00346
1494.99	0.00279
1504.63	0.00243
1514.28	0.00218
1523.92	0.00196
1533.57	0.00205
1543.21	0.00198
1552.86	0.00196
1562.5	0.0019
1572.15	0.00186
1581.79	0.00177
1591.44	0.00164
1601.08	0.00146
1610.73	0.00131
1620.37	0.00121
1630.01	0.00126
1639.66	0.00112
1649.3	0.00121
1658.95	0.00138
1668.59	0.00147
1678.24	0.0018
1687.88	0.0024
1697.53	0.00348
1707.17	0.00602
1716.82	0.0101
1726.46	0.01548
1736.11	0.02503
1745.75	0.0509
1755.4	0.10389
1765.04	0.09675
1774.69	0.04398
1784.33	0.02561
1793.98	0.01535
1803.62	0.00783
1813.27	0.00422
1822.91	0.00254
1832.55	0.0017
1842.2	0.00138
1851.84	0.00121
1861.49	0.00116
1871.13	0.0010624
1880.78	0.00113
1890.42	0.0010957
1900.07	0.0009582
1909.71	0.0008808
1919.36	0.0008699
1929	0.0008734
1938.65	0.0008649
1948.29	0.0008642
1957.94	0.0008359
1967.58	0.0009405
1977.23	0.0009071
1986.87	0.0009807
1996.52	0.0009951
2006.16	0.0010143
2015.81	0.0010606
2025.45	0.0010538
2035.1	0.00114
2044.74	0.00113
2054.38	0.0010755
2064.03	0.0010058
2073.67	0.0009176
2083.32	0.0010305
2092.96	0.0009867
2102.61	0.0010322
2112.25	0.0009526
2121.9	0.0009196
2131.54	0.0008001
2141.19	0.0007668
2150.83	0.0006917
2160.48	0.0005947
2170.12	0.0005465
2179.77	0.000515
2189.41	0.0005442
2199.06	0.0004099
2208.7	0.0004145
2218.35	0.0004046
2227.99	0.0003785
2237.64	0.0003816
2247.28	0.0003126
2256.92	0.0002519
2266.57	0.0002585
2276.21	0.0004043
2285.86	0.0004003
2295.5	0.0003817
2305.15	0.0004517
2314.79	0.0004224
2324.44	0.0003532
2334.08	0.000392
2343.73	0.0004117
2353.37	0.0003535
2363.02	0.0002765
2372.66	0.0003381
2382.31	0.0004493
2391.95	0.0004162
2401.6	0.000339
2411.24	0.0004748
2420.89	0.0004677
2430.53	0.0003966
2440.18	0.0004055
2449.82	0.0003652
2459.47	0.0002982
2469.11	0.0003648
2478.75	0.0002605
2488.4	0.0004934
2498.04	0.0003218
2507.69	0.0004939
2517.33	0.0003567
2526.98	0.0003633
2536.62	0.0004495
2546.27	0.0003497
2555.91	0.0003165
2565.56	0.0003412
2575.2	0.0003364
2584.85	0.0004048
2594.49	0.0003862
2604.14	0.0003736
2613.78	0.0002651
2623.43	0.0003325
2633.07	0.0003054
2642.72	0.0003887
2652.36	0.0004535
2662.01	0.0003162
2671.65	0.0002442
2681.29	0.0003342
2690.94	0.0002457
2700.58	0.0002599
2710.23	0.00018338
2719.87	9.09e-05
2729.52	0.0003304
2739.16	0.00020155
2748.81	0.0003664
2758.45	0.0002878
2768.1	0.0002715
2777.74	0.0003108
2787.39	0.0003842
2797.03	0.0004233
2806.68	0.000544
2816.32	0.0005993
2825.97	0.0009562
2835.61	0.00152
2845.26	0.00303
2854.9	0.00489
2864.55	0.00286
2874.19	0.00216
2883.84	0.00217
2893.48	0.00296
2903.12	0.00395
2912.77	0.00477
2922.41	0.00521
2932.06	0.00559
2941.7	0.00715
2951.35	0.01257
2960.99	0.02859
2970.64	0.01689
2980.28	0.00786
2989.93	0.0064
2999.57	0.00652
3009.22	0.0063
3018.86	0.00501
3028.51	0.00459
3038.15	0.00429
3047.8	0.00314
3057.44	0.00209
3067.09	0.00192
3076.73	0.00174
3086.38	0.0014
3096.02	0.0015
3105.67	0.00115
3115.31	0.0010534
3124.95	0.0008742
3134.6	0.0007136
3144.24	0.0006582
3153.89	0.0005123
3163.53	0.0004134
3173.18	0.000389
3182.82	0.0004637
3192.47	0.0003247
3202.11	0.0004607
3211.76	0.000286
3221.4	0.0002354
3231.05	0.0002832
3240.69	0.0002791
3250.34	0.0003381
3259.98	0.0002446
3269.63	0.0002298
3279.27	0.00019806
3288.92	0.0002596
3298.56	0.000222
3308.21	0.0002283
3317.85	0.0003497
3327.49	0.0002884
3337.14	8.49e-05
3346.78	0.0003325
3356.43	0.000112881
3366.07	0.00019129
3375.72	0.00015787
3385.36	8.38e-05
3395.01	0.0002399
3404.65	0.0002798
3414.3	0.0003086
3423.94	0.0003452
3433.59	0.0003054
3443.23	0.0003449
3452.88	0.0003802
3462.52	0.0003566
3472.17	0.000559
3481.81	0.0009431
3491.46	0.000982
3501.1	0.0013
3510.75	0.0011017
3520.39	0.00075
3530.04	0.0006568
3539.68	0.0006648
3549.32	0.0005421
3558.97	0.0002644
3568.61	0.00015733
3578.26	0.0002947
3587.9	0.0003368
3597.55	0.0002461
3607.19	0.0002731
3616.84	0.0002625
3626.48	0.00017641
3636.13	0.0002848
3645.77	0.00016411
3655.42	0.00019719
3665.06	0.0002128
3674.71	0.0002748
3684.35	0.00018526
3694	0.0002619
3703.64	0.00019102
3713.29	0.0002543
3722.93	0.00020309
3732.58	0.00020755
3742.22	0.0003223
3751.86	0.00019071
3761.51	0.0003244
3771.15	0.00021
3780.8	0.0002897
3790.44	0.00019106
3800.09	0.0002532
3809.73	0.0002646
3819.38	0.0002268
3829.02	0.0003566
3838.67	0.0002422
3848.31	0.0002195
3857.96	0.0002649
3867.6	0.0004484
3877.25	0.0002952
3886.89	0.0002795
3896.54	0.00020793
3906.18	0.0002823
3915.83	0.000362
3925.47	0.0004396
3935.12	0.0002867
3944.76	0.0003936
3954.41	0.0005014
3964.05	0.0002303
3973.69	0.0005719
3983.34	0.0003984
3992.98	0.0003207
