Infrared Spectrum: L(+)-CYSTEINE ETHYL ESTER HYDROCHLORIDE
Formula: C5 H11 N S O2  * H Cl
CAS: 868-59-7
State: SOLID (MINERAL OIL MULL)
Melting point: 123-126 C
Class: COBLENTZ
Instrument: Not specified, most likely a prism, grating, or hybrid spectrometer.
Sampling: TRANSMISSION
Resolution: 4
Origin: ARTHUR D. LITTLE, INC.
MICROMETERS	TRANSMITTANCE
2.521	0.959
2.5565	0.964
2.592	0.966
2.62751	0.969
2.66301	0.965
2.69851	0.961
2.73401	0.957
2.76952	0.949
2.80502	0.932
2.84052	0.935
2.87602	0.931
2.91153	0.925
2.94703	0.913
2.98253	0.894
3.01803	0.805
3.05353	0.727
3.08904	0.637
3.12454	0.552
3.16004	0.48
3.19554	0.388
3.23105	0.284
3.26655	0.172
3.30205	0.081
3.33755	0.041
3.37306	0.027
3.40856	0.027
3.44406	0.037
3.47956	0.066
3.51506	0.263
3.55057	0.414
3.58607	0.492
3.62157	0.487
3.65707	0.451
3.69258	0.463
3.72808	0.617
3.76358	0.576
3.79908	0.524
3.83459	0.608
3.87009	0.657
3.90559	0.706
3.94109	0.678
3.9766	0.546
4.0121	0.35
4.0476	0.621
4.0831	0.743
4.1186	0.807
4.15411	0.844
4.18961	0.851
4.22511	0.857
4.26061	0.881
4.29612	0.903
4.33162	0.914
4.36712	0.922
4.40262	0.914
4.43813	0.927
4.47363	0.939
4.50913	0.944
4.54463	0.944
4.58013	0.945
4.61564	0.945
4.65114	0.944
4.68664	0.942
4.72214	0.929
4.75765	0.924
4.79315	0.925
4.82865	0.93
4.86415	0.917
4.89966	0.877
4.93516	0.822
4.97066	0.766
5.00616	0.722
5.04166	0.71
5.07717	0.765
5.11267	0.828
5.14817	0.868
5.18367	0.892
5.21918	0.902
5.25468	0.917
5.29018	0.916
5.32568	0.918
5.36119	0.923
5.39669	0.927
5.43219	0.924
5.46769	0.92
5.50319	0.914
5.5387	0.904
5.5742	0.878
5.6097	0.768
5.6452	0.513
5.68071	0.28
5.71621	0.094
5.75171	0.697
5.78721	0.778
5.82272	0.806
5.85822	0.85
5.89372	0.887
5.92922	0.904
5.96473	0.907
6.00023	0.909
6.03573	0.907
6.07123	0.897
6.10673	0.867
6.14224	0.839
6.17774	0.782
6.21324	0.598
6.24874	0.478
6.28425	0.711
6.31975	0.659
6.35525	0.688
6.39075	0.801
6.42626	0.837
6.46176	0.841
6.49726	0.844
6.53276	0.831
6.56826	0.805
6.60377	0.739
6.63927	0.566
6.67477	0.393
6.71027	0.192
6.74578	0.042
6.78128	0.191
6.81678	0.327
6.85228	0.4
6.88779	0.43
6.92329	0.585
6.95879	0.611
6.99429	0.569
7.02979	0.744
7.0653	0.741
7.1008	0.677
7.1363	0.552
7.1718	0.492
7.20731	0.511
7.24281	0.564
7.27831	0.622
7.31381	0.498
7.34932	0.663
7.38482	0.755
7.42032	0.678
7.45582	0.491
7.49132	0.478
7.52683	0.735
7.56233	0.782
7.59783	0.773
7.63333	0.689
7.66884	0.537
7.70434	0.448
7.73984	0.631
7.77534	0.638
7.81085	0.707
7.84635	0.715
7.88185	0.695
7.91735	0.626
7.95286	0.547
7.98836	0.468
8.02386	0.338
8.05936	0.166
8.09486	0.099
8.13037	0.05
8.16587	0.038
8.20137	0.233
8.23687	0.203
8.27238	0.255
8.30788	0.488
8.34338	0.669
8.37888	0.733
8.41439	0.734
8.44989	0.685
8.48539	0.617
8.52089	0.655
8.55639	0.72
8.5919	0.687
8.6274	0.585
8.6629	0.362
8.6984	0.185
8.73391	0.376
8.76941	0.628
8.80491	0.753
8.84041	0.759
8.87592	0.667
8.91142	0.65
8.94692	0.716
8.98242	0.741
9.01792	0.662
9.05343	0.525
9.08893	0.369
9.12443	0.639
9.15993	0.748
9.19544	0.775
9.23094	0.681
9.26644	0.53
9.30194	0.293
9.33745	0.256
9.37295	0.546
9.40845	0.774
9.44395	0.839
9.47945	0.854
9.51496	0.864
9.55046	0.866
9.58596	0.861
9.62146	0.846
9.65697	0.807
9.69247	0.754
9.72797	0.635
9.76347	0.51
9.79898	0.382
9.83448	0.426
9.86998	0.603
9.90548	0.722
9.94099	0.785
9.97649	0.785
10.012	0.696
10.0475	0.546
10.083	0.583
10.1185	0.715
10.154	0.82
10.1895	0.841
10.225	0.863
10.2605	0.871
10.296	0.878
10.3315	0.879
10.367	0.864
10.4025	0.782
10.438	0.708
10.4735	0.632
10.509	0.697
10.5445	0.821
10.58	0.846
10.6155	0.878
10.651	0.896
10.6865	0.906
10.722	0.914
10.7575	0.919
10.793	0.92
10.8285	0.923
10.864	0.924
10.8995	0.924
10.9351	0.924
10.9706	0.924
11.0061	0.924
11.0416	0.924
11.0771	0.923
11.1126	0.918
11.1481	0.912
11.1836	0.902
11.2191	0.883
11.2546	0.858
11.2901	0.789
11.3256	0.634
11.3611	0.513
11.3966	0.42
11.4321	0.396
11.4676	0.636
11.5031	0.675
11.5386	0.598
11.5741	0.499
11.6096	0.377
11.6451	0.58
11.6806	0.714
11.7161	0.798
11.7516	0.846
11.7871	0.858
11.8226	0.84
11.8581	0.791
11.8936	0.74
11.9291	0.76
11.9646	0.821
12.0001	0.857
12.0356	0.866
12.0711	0.878
12.1066	0.891
12.1421	0.892
12.1776	0.89
12.2131	0.891
12.2486	0.892
12.2841	0.893
12.3196	0.894
12.3551	0.894
12.3906	0.891
12.4261	0.884
12.4616	0.853
12.4972	0.807
12.5327	0.752
12.5682	0.672
12.6037	0.637
12.6392	0.708
12.6747	0.785
12.7102	0.832
12.7457	0.84
12.7812	0.854
12.8167	0.863
12.8522	0.863
12.8877	0.863
12.9232	0.863
12.9587	0.863
12.9942	0.864
13.0297	0.863
13.0652	0.855
13.1007	0.848
13.1362	0.813
13.1717	0.743
13.2072	0.654
13.2427	0.592
13.2782	0.663
13.3137	0.755
13.3492	0.801
13.3847	0.82
13.4202	0.828
13.4557	0.833
13.4912	0.839
13.5267	0.841
13.5622	0.84
13.5977	0.838
13.6332	0.837
13.6687	0.834
13.7042	0.827
13.7397	0.817
13.7752	0.815
13.8107	0.814
13.8462	0.812
13.8817	0.811
13.9172	0.813
13.9527	0.813
13.9882	0.814
14.0238	0.819
14.0593	0.822
14.0948	0.825
14.1303	0.827
14.1658	0.829
14.2013	0.829
14.2368	0.828
14.2723	0.826
14.3078	0.82
14.3433	0.815
14.3788	0.814
14.4143	0.813
14.4498	0.809
14.4853	0.799
14.5208	0.785
14.5563	0.773
14.5918	0.77
14.6273	0.769
14.6628	0.765
14.6983	0.762
14.7338	0.757
14.7693	0.754
14.8048	0.753
14.8403	0.748
14.8758	0.746
14.9113	0.748
14.9468	0.741
14.9823	0.735
