Infrared Spectrum: 3,4-Diethyl-3-hexene
Formula: C 10 H 20
CAS: 868-46-2
State: gas
Instrument: HP-GC/MS/IRD
Origin: NIST Mass Spectrometry Data Center
1/CM	ABSORBANCE
550	0.0006825
562	0.0003045
574	0.00021
586	0.000217
598	0.0001925
610	0.000287
622	0.0002765
634	0.0002275
646	0.0001925
658	0.00014
670	7.7e-05
682	3.15e-05
694	5.25e-05
706	7.35e-05
718	3.85e-05
730	4.2e-05
742	0.000112
754	0.000168
766	0.0003255
778	0.0003395
790	0.0004235
802	0.0007315
814	0.001645
826	0.002275
838	0.001582
850	0.000805
862	0.0006335
874	0.0007875
886	0.00063
898	0.00049
910	0.0008995
922	0.0011095
934	0.0007735
946	0.000714
958	0.0005705
970	0.0003815
982	0.000217
994	0.0002205
1006	0.0002975
1018	0.0003885
1030	0.000518
1042	0.000525
1054	0.000483
1066	0.0004725
1078	0.0003745
1090	0.000448
1102	0.000546
1114	0.000553
1126	0.0003395
1138	0.000245
1150	0.0002345
1162	0.0001295
1174	0.0001435
1186	0.0001785
1198	0.0001785
1210	0.0001995
1222	0.0001365
1234	0.000266
1246	0.0003955
1258	0.00056
1270	0.0006195
1282	0.000574
1294	0.0006405
1306	0.000784
1318	0.000777
1330	0.000791
1342	0.000784
1354	0.0008155
1366	0.001351
1378	0.0025585
1390	0.0022435
1402	0.001134
1414	0.000973
1426	0.0011655
1438	0.0017955
1450	0.0034405
1462	0.005089
1474	0.0038255
1486	0.00175
1498	0.0009695
1510	0.0007385
1522	0.0006335
1534	0.0005215
1546	0.000469
1558	0.000357
1570	0.000315
1582	0.0002975
1594	0.000273
1606	0.000259
1618	0.000273
1630	0.00028
1642	0.0003395
1654	0.0003115
1666	0.0002135
1678	0.000133
1690	0.000119
1702	0.0001015
1714	7.35e-05
1726	6.65e-05
1738	7e-05
1750	5.95e-05
1762	4.2e-05
1774	4.2e-05
1786	6.65e-05
1798	7e-05
1810	8.05e-05
1822	8.75e-05
1834	0.000126
1846	0.0001435
1858	0.0001645
1870	0.000105
1882	8.4e-05
1894	6.3e-05
1906	2.45e-05
1918	1.75e-05
1930	3.5e-06
1942	1.75e-05
1954	3.85e-05
1966	2.1e-05
1978	3.5e-06
1990	1.4e-05
2002	7e-06
2014	2.1e-05
2026	3.5e-05
2038	4.55e-05
2050	1.75e-05
2062	2.1e-05
2074	3.15e-05
2086	4.55e-05
2098	2.8e-05
2110	3.5e-05
2122	2.8e-05
2134	4.55e-05
2146	6.3e-05
2158	2.8e-05
2170	3.5e-05
2182	3.85e-05
2194	2.45e-05
2206	4.2e-05
2218	3.15e-05
2230	4.55e-05
2242	2.1e-05
2254	4.2e-05
2266	3.85e-05
2278	3.85e-05
2290	4.9e-05
2302	7e-05
2314	5.25e-05
2326	6.3e-05
2338	8.05e-05
2350	0.0001015
2362	9.1e-05
2374	9.1e-05
2386	8.4e-05
2398	0.0001085
2410	0.000119
2422	9.8e-05
2434	8.05e-05
2446	6.3e-05
2458	6.65e-05
2470	6.65e-05
2482	7.35e-05
2494	5.95e-05
2506	5.25e-05
2518	7e-05
2530	7.35e-05
2542	7.7e-05
2554	0.0001225
2566	0.0001295
2578	0.000168
2590	0.0001435
2602	0.0001645
2614	0.0001645
2626	0.000168
2638	0.000189
2650	0.000231
2662	0.000252
2674	0.000259
2686	0.0002905
2698	0.000315
2710	0.000406
2722	0.0005425
2734	0.000728
2746	0.000784
2758	0.000728
2770	0.000742
2782	0.000875
2794	0.001071
2806	0.001253
2818	0.0015295
2830	0.0021595
2842	0.0031885
2854	0.0054005
2866	0.010486
2878	0.016135
2890	0.015799
2902	0.013433
2914	0.0155995
2926	0.0232785
2938	0.0285915
2950	0.025095
2962	0.0315735
2974	0.032102
2986	0.01519
2998	0.007861
3010	0.005789
3022	0.004557
3034	0.003738
3046	0.003024
3058	0.0024045
3070	0.001743
3082	0.0012845
3094	0.0010395
3106	0.0008995
3118	0.000777
3130	0.0007175
3142	0.0006405
3154	0.0005425
3166	0.0004445
3178	0.000378
3190	0.000287
3202	0.0002555
3214	0.000196
3226	0.0001715
3238	0.000112
3250	0.00014
3262	9.1e-05
3274	9.1e-05
3286	0.0001085
3298	5.95e-05
3310	4.55e-05
3322	5.95e-05
3334	3.85e-05
3346	2.8e-05
3358	3.5e-05
3370	5.95e-05
3382	5.95e-05
3394	3.5e-05
3406	7e-05
3418	2.1e-05
3430	5.25e-05
3442	3.15e-05
3454	2.45e-05
3466	2.8e-05
3478	7.35e-05
3490	8.4e-05
3502	5.95e-05
3514	7.35e-05
3526	6.65e-05
3538	8.4e-05
3550	7.7e-05
3562	6.3e-05
3574	8.4e-05
3586	6.65e-05
3598	8.4e-05
3610	6.65e-05
3622	7e-05
3634	0.000105
3646	9.1e-05
3658	8.75e-05
3670	7.35e-05
3682	7.35e-05
3694	0.000119
3706	0.0001015
3718	0.0001365
3730	0.0001365
3742	9.45e-05
3754	0.000147
3766	0.0001155
3778	9.1e-05
3790	0.0001085
3802	0.0001155
3814	0.000112
3826	0.0001155
3838	0.000105
