Infrared Spectrum: 1,2-ETHANEDIOL, MONO(2-METHYL)-2-PROPENOATE-
Formula: C6 H10 O3
CAS: 868-77-9
State: SOLUTION (5% IN CCl4 FOR 3800-1300, 5% IN CS2 FOR 1300-600, AND 5% IN CCl4 FOR 600-240 CM^-^1) VERSUS SOLVENT
Class: COBLENTZ III
Instrument: PERKIN-ELMER 521 (GRATING)
Instrument parameters: FILTERS AT 3150, 2500, 2000, 1150, 700, 410; GRATING CHANGES AT 2000, 630 CM^-^1
Sampling: TRANSMISSION
Path length: 0.010, 0.010, AND 0.020 CM (CsBr CELL)
Resolution: 4
Origin: DOW CORNING CORP.
1/CM	TRANSMITTANCE
237.44	0.803
246.4	0.756
255.36	0.732
264.32	0.708
273.28	0.6661
282.24	0.652
291.2	0.642
300.16	0.637
309.12	0.621
318.08	0.611
327.04	0.637
336	0.644
344.96	0.638
353.92	0.631
362.88	0.635
371.84	0.647
380.8	0.642
389.76	0.661
398.72	0.675
407.68	0.687
416.641	0.694
425.601	0.687
434.561	0.675
443.521	0.67
452.481	0.656
461.441	0.651
470.401	0.64
479.361	0.602
488.321	0.59
497.281	0.623
506.241	0.63
515.201	0.611
524.161	0.56
533.121	0.592
542.081	0.623
551.041	0.63
560.001	0.644
568.961	0.659
577.921	0.678
586.881	0.699
595.841	0.717
604.801	0.73
613.761	0.76
622.721	0.774
631.681	0.76
640.641	0.725
649.601	0.657
658.561	0.677
667.521	0.755
676.481	0.805
685.441	0.821
694.401	0.826
703.361	0.833
712.321	0.842
721.281	0.852
730.241	0.848
739.201	0.859
748.161	0.861
757.121	0.855
766.081	0.852
775.042	0.852
784.002	0.835
792.962	0.817
801.922	0.782
810.882	0.5383
819.842	0.6559
828.802	0.765
837.762	0.777
846.722	0.755
855.682	0.741
864.642	0.736
873.602	0.762
882.562	0.753
891.522	0.678
900.482	0.628
909.442	0.69
918.402	0.751
927.362	0.7081
936.322	0.4022
945.282	0.357
954.242	0.604
963.202	0.7549
972.162	0.8
981.122	0.779
990.082	0.748
999.042	0.677
1008	0.633
1016.96	0.532
1025.92	0.463
1034.88	0.482
1043.84	0.567
1052.8	0.569
1061.76	0.517
1070.72	0.406
1079.68	0.366
1088.64	0.427
1097.6	0.595
1106.56	0.7169
1115.52	0.725
1124.48	0.682
1133.44	0.602
1142.4	0.4771
1151.36	0.197
1160.32	0.043
1169.28	0.041
1178.24	0.135
1187.2	0.25
1196.16	0.3799
1205.12	0.506
1214.08	0.59
1223.04	0.609
1232	0.637
1240.96	0.67
1249.92	0.68
1258.88	0.685
1267.84	0.656
1276.8	0.593
1285.76	0.538
1294.72	0.1971
1303.68	0.3051
1312.64	0.3689
1321.6	0.218
1330.56	0.491
1339.52	0.621
1348.48	0.664
1357.44	0.685
1366.4	0.618
1375.36	0.579
1384.32	0.588
1393.28	0.614
1402.24	0.5289
1411.2	0.576
1420.16	0.635
1429.12	0.626
1438.08	0.539
1447.04	0.536
1456	0.43
1464.96	0.609
1473.92	0.718
1482.88	0.782
1491.84	0.835
1500.8	0.854
1509.76	0.861
1518.72	0.876
1527.68	0.881
1536.64	0.885
1545.6	0.887
1554.56	0.885
1563.52	0.881
1572.48	0.875
1581.44	0.862
1590.4	0.855
1599.36	0.838
1608.32	0.814
1617.28	0.777
1626.24	0.671
1635.2	0.519
1644.16	0.4999
1653.12	0.796
1662.08	0.803
1671.04	0.777
1680	0.73
1688.96	0.623
1697.92	0.4249
1706.88	0.1821
1715.84	0.083
1724.8	0.029
1733.76	0.138
1742.72	0.583
1751.68	0.729
1760.64	0.789
1769.6	0.814
1778.56	0.836
1787.52	0.845
1796.48	0.852
1805.44	0.862
1814.4	0.871
1823.36	0.873
1832.32	0.875
1841.28	0.876
1850.24	0.875
1859.2	0.871
1868.16	0.864
1877.12	0.857
1886.08	0.847
1895.04	0.85
1904	0.864
1912.96	0.873
1921.92	0.875
1930.88	0.876
1939.84	0.876
1948.8	0.876
1957.76	0.876
1966.72	0.875
1975.68	0.873
1984.64	0.871
1993.6	0.878
2002.56	0.888
2011.52	0.886
2020.49	0.885
2029.45	0.885
2038.41	0.885
2047.37	0.883
2056.33	0.885
2065.29	0.885
2074.25	0.8849
2083.21	0.8819
2092.17	0.88
2101.13	0.881
2110.09	0.881
2119.05	0.88
2128.01	0.878
2136.97	0.878
2145.93	0.8782
2154.89	0.88
2163.85	0.8801
2172.81	0.8804
2181.77	0.88
2190.73	0.881
2199.69	0.881
2208.65	0.878
2217.61	0.88
2226.57	0.88
2235.53	0.88
2244.49	0.8787
2253.45	0.878
2262.41	0.878
2271.37	0.878
2280.33	0.881
2289.29	0.88
2298.25	0.881
2307.21	0.883
2316.17	0.885
2325.13	0.885
2334.09	0.887
2343.05	0.887
2352.01	0.888
2360.97	0.8861
2369.93	0.8788
2378.89	0.875
2387.85	0.875
2396.81	0.875
2405.77	0.875
2414.73	0.875
2423.69	0.873
2432.65	0.875
2441.61	0.8695
2450.57	0.8687
2459.53	0.864
2468.49	0.8617
2477.45	0.8618
2486.41	0.8634
2495.37	0.8636
2504.33	0.8674
2513.29	0.866
2522.25	0.863
2531.21	0.859
2540.17	0.861
2549.13	0.859
2558.09	0.8583
2567.05	0.857
2576.01	0.857
2584.97	0.857
2593.93	0.857
2602.89	0.855
2611.85	0.855
2620.81	0.855
2629.77	0.8546
2638.73	0.855
2647.69	0.8546
2656.65	0.854
2665.61	0.854
2674.57	0.8522
2683.53	0.852
2692.49	0.852
2701.45	0.8491
2710.41	0.847
2719.37	0.845
2728.33	0.843
2737.29	0.843
2746.25	0.842
2755.21	0.843
2764.17	0.842
2773.13	0.841
2782.09	0.838
2791.05	0.8285
2800.01	0.821
2808.97	0.819
2817.93	0.807
2826.89	0.8025
2835.85	0.7929
2844.81	0.7669
2853.77	0.7407
2862.73	0.7059
2871.69	0.669
2880.65	0.6332
2889.61	0.6266
2898.57	0.6579
2907.53	0.6742
2916.49	0.6489
2925.45	0.5625
2934.41	0.5517
2943.37	0.5509
2952.33	0.4863
2961.29	0.4645
2970.25	0.5397
2979.21	0.5932
2988.17	0.6102
2997.13	0.6667
3006.09	0.7365
3015.05	0.7726
3024.01	0.7822
3032.97	0.8074
3041.93	0.81
3050.89	0.812
3059.85	0.8273
3068.81	0.8313
3077.77	0.8316
3086.73	0.8306
3095.69	0.822
3104.65	0.8098
3113.61	0.8232
3122.57	0.8314
3131.53	0.835
3140.49	0.8306
3149.45	0.829
3158.41	0.824
3167.37	0.822
3176.33	0.822
3185.29	0.821
3194.25	0.817
3203.21	0.815
3212.17	0.8135
3221.13	0.81
3230.09	0.8065
3239.05	0.798
3248.01	0.7945
3256.97	0.7864
3265.93	0.7784
3274.89	0.7744
3283.85	0.767
3292.81	0.759
3301.77	0.7521
3310.73	0.7432
3319.69	0.7354
3328.65	0.7275
3337.61	0.7163
3346.57	0.7067
3355.53	0.6983
3364.49	0.6891
3373.45	0.6832
3382.41	0.6719
3391.37	0.6636
3400.33	0.6511
3409.29	0.6385
3418.25	0.6253
3427.21	0.616
3436.17	0.6074
3445.13	0.6032
3454.09	0.5982
3463.05	0.5942
3472.01	0.59
3480.97	0.5842
3489.93	0.5791
3498.89	0.579
3507.85	0.5829
3516.81	0.5889
3525.77	0.5997
3534.73	0.6152
3543.69	0.6435
3552.65	0.6691
3561.61	0.696
3570.57	0.7324
3579.53	0.7579
3588.49	0.7835
3597.45	0.788
3606.41	0.7815
3615.37	0.7499
3624.33	0.7182
3633.29	0.7481
3642.25	0.787
3651.21	0.8521
3660.17	0.8606
3669.13	0.8781
3678.09	0.8805
3687.05	0.8811
3696.01	0.8841
3704.97	0.8901
3713.93	0.8957
3722.89	0.8972
3731.85	0.9016
3740.81	0.914
3749.77	0.913
3758.73	0.9017
3767.69	0.894
3776.65	0.8938
3785.61	0.892
3794.57	0.8941
