Infrared Spectrum: N,N'-BIS(Alpha-MERCAPTOPROPIONYL) HYDRAZINE
Formula: C6 H12 N2 O2 S2
CAS: 868-78-0
State: SOLID(MINERAL OIL MULL)
Melting point: 203 C (DECOMPOSE)
Class: COBLENTZ
Instrument: Not specified, most likely a prism, grating, or hybrid spectrometer.
Sampling: TRANSMISSION
Resolution: 4
Origin: ARTHUR D. LITTLE, INC.
1/CM	TRANSMITTANCE
701.73	0.575
709.592	0.577
717.453	0.598
725.315	0.614
733.177	0.618
741.038	0.622
748.9	0.648
756.761	0.655
764.623	0.657
772.485	0.66
780.346	0.66
788.208	0.659
796.07	0.659
803.931	0.656
811.793	0.653
819.655	0.651
827.516	0.648
835.378	0.644
843.239	0.635
851.101	0.621
858.963	0.596
866.824	0.576
874.686	0.564
882.548	0.576
890.409	0.614
898.271	0.621
906.132	0.618
913.994	0.614
921.856	0.61
929.717	0.605
937.579	0.601
945.441	0.597
953.302	0.593
961.164	0.593
969.026	0.597
976.887	0.602
984.749	0.601
992.61	0.598
1000.47	0.594
1008.33	0.59
1016.2	0.585
1024.06	0.581
1031.92	0.575
1039.78	0.561
1047.64	0.543
1055.5	0.493
1063.37	0.435
1071.23	0.507
1079.09	0.547
1086.95	0.548
1094.81	0.547
1102.67	0.544
1110.53	0.539
1118.4	0.531
1126.26	0.514
1134.12	0.505
1141.98	0.481
1149.84	0.461
1157.7	0.425
1165.57	0.397
1173.43	0.34
1181.29	0.28
1189.15	0.28
1197.01	0.367
1204.87	0.461
1212.74	0.502
1220.6	0.51
1228.46	0.511
1236.32	0.51
1244.18	0.509
1252.04	0.506
1259.91	0.503
1267.77	0.501
1275.63	0.501
1283.49	0.501
1291.35	0.501
1299.21	0.501
1307.08	0.5
1314.94	0.497
1322.8	0.49
1330.66	0.478
1338.52	0.455
1346.38	0.435
1354.25	0.389
1362.11	0.347
1369.97	0.353
1377.83	0.414
1385.69	0.448
1393.55	0.448
1401.42	0.443
1409.28	0.439
1417.14	0.434
1425	0.398
1432.86	0.306
1440.72	0.257
1448.59	0.235
1456.45	0.221
1464.31	0.213
1472.17	0.21
1480.03	0.218
1487.89	0.29
1495.75	0.353
1503.62	0.386
1511.48	0.392
1519.34	0.39
1527.2	0.385
1535.06	0.371
1542.92	0.353
1550.79	0.309
1558.65	0.268
1566.51	0.221
1574.37	0.161
1582.23	0.132
1590.09	0.122
1597.96	0.118
1605.82	0.146
1613.68	0.226
1621.54	0.315
1629.4	0.405
1637.26	0.497
1645.13	0.588
1652.99	0.609
1660.85	0.651
1668.71	0.689
1676.57	0.725
1684.43	0.765
1692.3	0.785
1700.16	0.822
1708.02	0.834
1715.88	0.859
1723.74	0.864
1731.6	0.875
1739.47	0.876
1747.33	0.876
1755.19	0.877
1763.05	0.878
1770.91	0.878
1778.77	0.878
1786.64	0.88
1794.5	0.88
1802.36	0.88
1810.22	0.881
1818.08	0.881
1825.94	0.881
1833.81	0.881
1841.67	0.881
1849.53	0.881
1857.39	0.881
1865.25	0.881
1873.11	0.881
1880.98	0.881
1888.84	0.882
1896.7	0.882
1904.56	0.882
1912.42	0.882
1920.28	0.882
1928.14	0.884
1936.01	0.884
1943.87	0.884
1951.73	0.884
1959.59	0.884
1967.45	0.885
1975.31	0.885
1983.18	0.885
1991.04	0.886
1998.9	0.886
2006.76	0.886
2014.62	0.888
2022.48	0.888
2030.35	0.888
2038.21	0.889
2046.07	0.889
2053.93	0.89
2061.79	0.89
2069.65	0.89
2077.52	0.892
2085.38	0.892
2093.24	0.892
2101.1	0.893
2108.96	0.893
2116.82	0.894
2124.69	0.894
2132.55	0.896
2140.41	0.896
2148.27	0.897
2156.13	0.897
2163.99	0.898
2171.86	0.898
2179.72	0.9
2187.58	0.9
2195.44	0.9
2203.3	0.901
2211.16	0.901
2219.03	0.902
2226.89	0.902
2234.75	0.903
2242.61	0.903
2250.47	0.905
2258.33	0.905
2266.2	0.905
2274.06	0.905
2281.92	0.905
2289.78	0.906
2297.64	0.906
2305.5	0.906
2313.36	0.906
2321.23	0.906
2329.09	0.907
2336.95	0.907
2344.81	0.907
2352.67	0.907
2360.53	0.907
2368.4	0.907
2376.26	0.909
2384.12	0.909
2391.98	0.909
2399.84	0.909
2407.7	0.91
2415.57	0.91
2423.43	0.91
2431.29	0.91
2439.15	0.91
2447.01	0.91
2454.87	0.91
2462.74	0.91
2470.6	0.91
2478.46	0.91
2486.32	0.909
2494.18	0.907
2502.04	0.906
2509.91	0.905
2517.77	0.905
2525.63	0.902
2533.49	0.9
2541.35	0.897
2549.21	0.893
2557.08	0.89
2564.94	0.893
2572.8	0.894
2580.66	0.894
2588.52	0.894
2596.38	0.892
2604.25	0.889
2612.11	0.886
2619.97	0.882
2627.83	0.881
2635.69	0.881
2643.55	0.878
2651.42	0.873
2659.28	0.871
2667.14	0.867
2675	0.861
2682.86	0.859
2690.72	0.857
2698.58	0.856
2706.45	0.856
2714.31	0.856
2722.17	0.856
2730.03	0.855
2737.89	0.855
2745.75	0.852
2753.62	0.847
2761.48	0.836
2769.34	0.821
2777.2	0.802
2785.06	0.788
2792.92	0.769
2800.79	0.755
2808.65	0.723
2816.51	0.665
2824.37	0.589
2832.23	0.45
2840.09	0.297
2847.96	0.235
2855.82	0.232
2863.68	0.238
2871.54	0.243
2879.4	0.234
2887.26	0.201
2895.13	0.167
2902.99	0.146
2910.85	0.139
2918.71	0.14
2926.57	0.148
2934.43	0.161
2942.3	0.175
2950.16	0.189
2958.02	0.214
2965.88	0.296
2973.74	0.39
2981.6	0.467
2989.47	0.51
2997.33	0.515
3005.19	0.513
3013.05	0.506
3020.91	0.501
3028.77	0.5
3036.64	0.505
3044.5	0.515
3052.36	0.528
3060.22	0.548
3068.08	0.557
3075.94	0.557
3083.8	0.551
3091.67	0.532
3099.53	0.514
3107.39	0.49
3115.25	0.463
3123.11	0.436
3130.97	0.401
3138.84	0.371
3146.7	0.342
3154.56	0.298
3162.42	0.263
3170.28	0.248
3178.14	0.246
3186.01	0.25
3193.87	0.257
3201.73	0.275
3209.59	0.309
3217.45	0.344
3225.31	0.397
3233.18	0.448
3241.04	0.494
3248.9	0.547
3256.76	0.598
3264.62	0.64
3272.48	0.68
3280.35	0.709
3288.21	0.74
3296.07	0.771
3303.93	0.801
3311.79	0.825
3319.65	0.848
3327.52	0.863
3335.38	0.877
3343.24	0.886
3351.1	0.89
3358.96	0.89
3366.82	0.89
3374.69	0.89
3382.55	0.89
3390.41	0.89
