Infrared Spectrum: 3,3'-Bis(trifluoromethyl)diphenylmethane
Formula: C 15 H 10 F 6
CAS: 86845-35-4
State: gas
Origin: EPA-IR VAPOR PHASE LIBRARY
1/CM	ABSORBANCE
549.9	0.00725
559.547	0.01378
569.193	0.00863
578.84	0.00728
588.486	0.00656
598.133	0.00511
607.779	0.00377
617.426	0.00332
627.072	0.00333
636.719	0.00411
646.365	0.00974
656.012	0.03764
665.658	0.03249
675.305	0.01773
684.951	0.01754
694.598	0.04511
704.245	0.08527
713.891	0.03157
723.538	0.00948
733.184	0.00738
742.831	0.01393
752.477	0.0219
762.124	0.0108
771.77	0.01177
781.417	0.02442
791.063	0.05065
800.71	0.04347
810.356	0.01646
820.003	0.00646
829.649	0.00458
839.296	0.00462
848.943	0.00599
858.589	0.00838
868.236	0.01148
877.882	0.01448
887.529	0.0259
897.175	0.04241
906.822	0.0324
916.468	0.02837
926.115	0.0161
935.761	0.01478
945.408	0.0116
955.054	0.00698
964.701	0.00535
974.347	0.00552
983.994	0.00589
993.64	0.00657
1003.29	0.00809
1012.93	0.00681
1022.58	0.00632
1032.23	0.00685
1041.87	0.00931
1051.52	0.01631
1061.17	0.03748
1070.81	0.11532
1080.46	0.1673
1090.11	0.10201
1099.75	0.06625
1109.4	0.04132
1119.05	0.06087
1128.69	0.14793
1138.34	0.41859
1147.99	0.62768
1157.63	0.3337
1167.28	0.37675
1176.92	0.48343
1186.57	0.28649
1196.22	0.15319
1205.86	0.08115
1215.51	0.04292
1225.16	0.03176
1234.8	0.02766
1244.45	0.02828
1254.1	0.03798
1263.74	0.04256
1273.39	0.03506
1283.04	0.04113
1292.68	0.07105
1302.33	0.14183
1311.98	0.25853
1321.62	0.45877
1331.27	0.60791
1340.92	0.24375
1350.56	0.05247
1360.21	0.02262
1369.86	0.01307
1379.5	0.00919
1389.15	0.00822
1398.79	0.01044
1408.44	0.01636
1418.09	0.01624
1427.73	0.02014
1437.38	0.0399
1447.03	0.07477
1456.67	0.03032
1466.32	0.01163
1475.97	0.00957
1485.61	0.0139
1495.26	0.01839
1504.91	0.00776
1514.55	0.00391
1524.2	0.0029281
1533.85	0.0027943
1543.49	0.0030831
1553.14	0.0038
1562.79	0.00462
1572.43	0.00545
1582.08	0.00811
1591.73	0.01443
1601.37	0.01233
1611.02	0.01024
1620.67	0.00774
1630.31	0.00496
1639.96	0.00435
1649.6	0.00449
1659.25	0.00533
1668.9	0.00605
1678.54	0.00552
1688.19	0.00384
1697.84	0.00365
1707.48	0.00492
1717.13	0.00517
1726.78	0.00417
1736.42	0.00353
1746.07	0.00356
1755.72	0.00396
1765.36	0.00429
1775.01	0.00418
1784.66	0.00404
1794.3	0.00404
1803.95	0.00387
1813.6	0.0035
1823.24	0.00363
1832.89	0.00396
1842.54	0.00359
1852.18	0.0031283
1861.83	0.0027636
1871.47	0.0028749
1881.12	0.00462
1890.77	0.00672
1900.41	0.00417
1910.06	0.0027233
1919.71	0.0025334
1929.35	0.0026773
1939	0.0037
1948.65	0.0049
1958.29	0.0031273
1967.94	0.001833
1977.59	0.001622
1987.23	0.001593
1996.88	0.001568
2006.53	0.00154
2016.17	0.001571
2025.82	0.001647
2035.47	0.001638
2045.11	0.001719
2054.76	0.001835
2064.41	0.002112
2074.05	0.002434
2083.7	0.00225946
2093.35	0.001496
2102.99	0.001253
2112.64	0.00114
2122.28	0.0012
2131.93	0.00117
2141.58	0.00121
2151.22	0.001278
2160.87	0.001313
2170.52	0.001323
2180.16	0.001474
2189.81	0.001538
2199.46	0.001709
2209.1	0.001891
2218.75	0.0021631
2228.4	0.002116
2238.04	0.002037
2247.69	0.00221023
2257.34	0.0024086
2266.98	0.0026315
2276.63	0.0026741
2286.28	0.0024564
2295.92	0.0021406
2305.57	0.002054
2315.22	0.002096
2324.86	0.0021298
2334.51	0.00231212
2344.16	0.0025082
2353.8	0.00229141
2363.45	0.001877
2373.09	0.001642
2382.74	0.00151
2392.39	0.001423
2402.03	0.001279
2411.68	0.001274
2421.33	0.00113
2430.97	0.001
2440.62	0.00094
2450.27	0.00102
2459.91	0.00114
2469.56	0.00133
2479.21	0.001424
2488.85	0.001366
2498.5	0.001396
2508.15	0.001349
2517.79	0.00103
2527.44	0.00082
2537.09	0.00077
2546.73	0.00062
2556.38	0.00066
2566.03	0.00064
2575.67	0.00066
2585.32	0.00071
2594.96	0.00082
2604.61	0.00089
2614.26	0.00094
2623.9	0.00095
2633.55	0.00116
2643.2	0.001343
2652.84	0.001256
2662.49	0.00099
2672.14	0.00052
2681.78	0.00019
2691.43	0.00012
2701.08	4e-05
2710.72	0.0001
2720.37	0.00014
2730.02	0.00025
2739.66	0.00036
2749.31	0.00041
2758.96	0.00048
2768.6	0.00048
2778.25	0.00047
2787.9	0.00028
2797.54	0.00017
2807.19	0.00014
2816.84	0.00016
2826.48	0.00038
2836.13	0.00098
2845.77	0.0024359
2855.42	0.00381
2865.07	0.0030505
2874.71	0.00203
2884.36	0.001786
2894.01	0.002084
2903.65	0.00406
2913.3	0.00877
2922.95	0.01394
2932.59	0.0138
2942.24	0.01035
2951.89	0.00635
2961.53	0.00349
2971.18	0.001936
2980.83	0.00117
2990.47	0.001
3000.12	0.001486
3009.77	0.00346
3019.41	0.00678
3029.06	0.00784
3038.71	0.01055
3048.35	0.01558
3058	0.01467
3067.64	0.01539
3077.29	0.01559
3086.94	0.01259
3096.58	0.0065
3106.23	0.0041
3115.88	0.00376
3125.52	0.00201
3135.17	0.00076
3144.82	0.00028
3154.46	0.00019
3164.11	0.00025
3173.76	0.00017
3183.4	0.00037
3193.05	0.00054
3202.7	0.00036
3212.34	0.0007
3221.99	0.00068
3231.64	0.00044
3241.28	0.00039
3250.93	0.00049
3260.58	0.00057
3270.22	0.00069
3279.87	0.00056
3289.52	0.00061
3299.16	0.00071
3308.81	0.00072
3318.45	0.00073
3328.1	0.00084
3337.75	0.00081
3347.39	0.00103
3357.04	0.00097
3366.69	0.00111
3376.33	0.00122
3385.98	0.001306
3395.63	0.001259
3405.27	0.001301
3414.92	0.001335
3424.57	0.001297
3434.21	0.001412
3443.86	0.001381
3453.51	0.001377
3463.15	0.00121
3472.8	0.001313
3482.45	0.001423
3492.09	0.001454
3501.74	0.001392
3511.39	0.001471
3521.03	0.001537
3530.68	0.001508
3540.33	0.00151
3549.97	0.001509
3559.62	0.001718
3569.26	0.001389
3578.91	0.001572
3588.56	0.001645
3598.2	0.001742
3607.85	0.001632
3617.5	0.001561
3627.14	0.001667
3636.79	0.001705
3646.44	0.001586
3656.08	0.001689
3665.73	0.001707
3675.38	0.001554
3685.02	0.00186
3694.67	0.001817
3704.32	0.001858
3713.96	0.001781
3723.61	0.001874
3733.26	0.001658
3742.9	0.001702
3752.55	0.001674
3762.2	0.001611
3771.84	0.001731
3781.49	0.001699
3791.13	0.001777
3800.78	0.001586
3810.43	0.001667
3820.07	0.001664
3829.72	0.001574
3839.37	0.001537
3849.01	0.001488
3858.66	0.001582
3868.31	0.001462
3877.95	0.001502
3887.6	0.001485
3897.25	0.001524
3906.89	0.001476
3916.54	0.001457
3926.19	0.00156
3935.83	0.001452
3945.48	0.00146
3955.13	0.001486
3964.77	0.00157
3974.42	0.001508
3984.07	0.001571
3993.71	0.001472
