Infrared Spectrum: PROPYL PHOSPHOROTRITHIOITE
Formula: C9 H21 P S3
CAS: 869-56-7
State: LIQUID (NEAT)
Class: COBLENTZ III
Instrument: BAIRD NaCl PRISM
Sampling: TRANSMISSION
Path length: 0.005 CM
Resolution: 4
Origin: WYANDOTTE CHEMICALS CORP.
MICROMETERS	TRANSMITTANCE
2.014	0.96
2.05323	0.971
2.09247	0.97
2.1317	0.964
2.17093	0.945
2.21017	0.817
2.2494	0.82
2.28864	0.829
2.32787	0.845
2.3671	0.878
2.40634	0.892
2.44557	0.897
2.4848	0.916
2.52404	0.939
2.56327	0.949
2.60251	0.947
2.64174	0.956
2.68097	0.963
2.72021	0.969
2.75944	0.97
2.79867	0.969
2.83791	0.968
2.87714	0.952
2.91637	0.944
2.95561	0.939
2.99484	0.924
3.03408	0.912
3.07331	0.896
3.11254	0.814
3.15178	0.75
3.19101	0.73
3.23024	0.68
3.26948	0.562
3.30871	0.362
3.34794	0.11
3.38718	0.044
3.42641	0.033
3.46565	0.043
3.50488	0.049
3.54411	0.221
3.58335	0.543
3.62258	0.662
3.66181	0.645
3.70105	0.733
3.74028	0.706
3.77952	0.726
3.81875	0.783
3.85798	0.808
3.89722	0.811
3.93645	0.814
3.97568	0.817
4.01492	0.821
4.05415	0.83
4.09338	0.825
4.13262	0.837
4.17185	0.816
4.21109	0.811
4.25032	0.841
4.28955	0.853
4.32879	0.856
4.36802	0.863
4.40725	0.846
4.44649	0.837
4.48572	0.83
4.52496	0.841
4.56419	0.848
4.60342	0.863
4.64266	0.88
4.68189	0.875
4.72112	0.883
4.76036	0.875
4.79959	0.894
4.83882	0.901
4.87806	0.9
4.91729	0.905
4.95653	0.904
4.99576	0.904
5.03499	0.921
5.07423	0.934
5.11346	0.932
5.15269	0.918
5.19193	0.913
5.23116	0.913
5.27039	0.924
5.30963	0.923
5.34886	0.922
5.3881	0.92
5.42733	0.924
5.46656	0.918
5.5058	0.916
5.54503	0.915
5.58426	0.915
5.6235	0.916
5.66273	0.905
5.70197	0.897
5.7412	0.88
5.78043	0.862
5.81967	0.825
5.8589	0.845
5.89813	0.816
5.93737	0.814
5.9766	0.809
6.01583	0.805
6.05507	0.806
6.0943	0.803
6.13354	0.798
6.17277	0.792
6.212	0.79
6.25124	0.788
6.29047	0.785
6.3297	0.777
6.36894	0.774
6.40817	0.758
6.4474	0.752
6.48664	0.73
6.52587	0.713
6.56511	0.681
6.60434	0.627
6.64357	0.555
6.68281	0.451
6.72204	0.323
6.76127	0.129
6.80051	0.033
6.83974	0.035
6.87898	0.034
6.91821	0.047
6.95744	0.068
6.99668	0.079
7.03591	0.116
7.07514	0.314
7.11438	0.426
7.15361	0.444
7.19284	0.264
7.23208	0.061
7.27131	0.158
7.31055	0.38
7.34978	0.576
7.38901	0.585
7.42825	0.371
7.46748	0.191
7.50671	0.359
7.54595	0.546
7.58518	0.528
7.62442	0.414
7.66365	0.23
7.70288	0.061
7.74212	0.035
7.78135	0.095
7.82058	0.309
7.85982	0.414
7.89905	0.412
7.93828	0.313
7.97752	0.234
8.01675	0.103
8.05599	0.028
8.09522	0.03
8.13445	0.108
8.17369	0.292
8.21292	0.29
8.25215	0.2
8.29139	0.109
8.33062	0.102
8.36985	0.301
8.40909	0.537
8.44832	0.594
8.48756	0.606
8.52679	0.612
8.56602	0.607
8.60526	0.558
8.64449	0.49
8.68372	0.575
8.72296	0.667
8.76219	0.704
8.80143	0.724
8.84066	0.72
8.87989	0.702
8.91913	0.676
8.95836	0.651
8.99759	0.603
9.03683	0.567
9.07606	0.453
9.11529	0.274
9.15453	0.228
9.19376	0.306
9.233	0.354
9.27223	0.403
9.31146	0.48
9.3507	0.489
9.38993	0.442
9.42916	0.319
9.4684	0.223
9.50763	0.217
9.54687	0.311
9.5861	0.375
9.62533	0.362
9.66457	0.404
9.7038	0.471
9.74303	0.522
9.78227	0.552
9.8215	0.57
9.86073	0.569
9.89997	0.568
9.9392	0.585
9.97844	0.592
10.0177	0.606
10.0569	0.627
10.0961	0.64
10.1354	0.659
10.1746	0.672
10.2138	0.681
10.2531	0.683
10.2923	0.681
10.3315	0.683
10.3708	0.701
10.41	0.724
10.4492	0.734
10.4885	0.741
10.5277	0.745
10.5669	0.745
10.6062	0.746
10.6454	0.745
10.6846	0.74
10.7239	0.733
10.7631	0.722
10.8023	0.698
10.8416	0.696
10.8808	0.707
10.92	0.71
10.9593	0.709
10.9985	0.698
11.0377	0.666
11.077	0.6
11.1162	0.468
11.1554	0.279
11.1947	0.195
11.2339	0.238
11.2731	0.255
11.3124	0.249
11.3516	0.335
11.3908	0.471
11.4301	0.567
11.4693	0.649
11.5085	0.686
11.5478	0.709
11.587	0.715
11.6262	0.723
11.6655	0.712
11.7047	0.692
11.744	0.671
11.7832	0.632
11.8224	0.581
11.8617	0.548
11.9009	0.531
11.9401	0.527
11.9794	0.511
12.0186	0.48
12.0578	0.48
12.0971	0.526
12.1363	0.6
12.1755	0.649
12.2148	0.682
12.254	0.698
12.2932	0.71
12.3325	0.715
12.3717	0.708
12.4109	0.703
12.4502	0.686
12.4894	0.67
12.5286	0.633
12.5679	0.564
12.6071	0.487
12.6463	0.35
12.6856	0.21
12.7248	0.137
12.764	0.103
12.8033	0.099
12.8425	0.13
12.8817	0.212
12.921	0.303
12.9602	0.42
12.9994	0.517
13.0387	0.592
13.0779	0.626
13.1171	0.646
13.1564	0.653
13.1956	0.649
13.2348	0.654
13.2741	0.646
13.3133	0.627
13.3525	0.603
13.3918	0.579
13.431	0.533
13.4702	0.484
13.5095	0.444
13.5487	0.404
13.5879	0.367
13.6272	0.328
13.6664	0.281
13.7056	0.248
13.7449	0.22
13.7841	0.215
13.8233	0.241
13.8626	0.277
13.9018	0.311
13.941	0.338
13.9803	0.349
14.0195	0.351
14.0587	0.356
14.098	0.373
14.1372	0.405
14.1764	0.446
14.2157	0.49
14.2549	0.532
14.2941	0.574
14.3334	0.602
14.3726	0.629
14.4118	0.644
14.4511	0.654
14.4903	0.651
14.5295	0.638
14.5688	0.626
14.608	0.628
14.6472	0.622
14.6865	0.644
14.7257	0.665
14.7649	0.688
14.8042	0.698
14.8434	0.719
14.8826	0.728
14.9219	0.736
14.9611	0.731
15.0003	0.722
15.0396	0.703
15.0788	0.694
15.118	0.706
15.1573	0.699
15.1965	0.687
15.2357	0.66
15.275	0.64
15.3142	0.618
15.3534	0.596
15.3927	0.579
15.4319	0.567
15.4711	0.573
15.5104	0.57
15.5496	0.573
15.5889	0.575
15.6281	0.575
15.6673	0.574
15.7066	0.576
15.7458	0.583
15.785	0.587
15.8243	0.595
15.8635	0.6
15.9027	0.606
15.942	0.61
15.9812	0.613
