Infrared Spectrum: Allylidene
Formula: C 7 H 10 O 4
CAS: 869-29-4
State: gas
Instrument: HP-GC/MS/IRD
Origin: NIST Mass Spectrometry Data Center
1/CM	ABSORBANCE
550	0.0006762
562	0.000441
574	0.0002842
586	0.0008183
598	0.0020727
610	0.0021462
622	0.0016905
634	0.0012495
646	0.0009849
658	0.0008575
670	0.0005782
682	0.0004704
694	0.0005096
706	0.000392
718	0.0002842
730	0.0001274
742	0.0001078
754	0.0001225
766	9.31e-05
778	8.82e-05
790	0.0001666
802	0.0002303
814	0.0003528
826	0.000392
838	0.0004851
850	0.0007546
862	0.0010192
874	0.0015974
886	0.0022638
898	0.0025529
910	0.0035182
922	0.0058947
934	0.009751
946	0.0130095
958	0.0159299
970	0.0233534
982	0.0285964
994	0.0281211
1006	0.0295911
1018	0.0231133
1030	0.0163366
1042	0.0150969
1054	0.0149842
1066	0.0141757
1078	0.0136857
1090	0.0115738
1102	0.0082075
1114	0.0067816
1126	0.0075656
1138	0.0079772
1150	0.0064778
1162	0.0062916
1174	0.010535
1186	0.0255339
1198	0.0473046
1210	0.0417676
1222	0.0313208
1234	0.0338198
1246	0.0263375
1258	0.0131761
1270	0.0056742
1282	0.0033173
1294	0.0025774
1306	0.0021217
1318	0.0019257
1330	0.0021217
1342	0.0027342
1354	0.0051744
1366	0.0112259
1378	0.0144893
1390	0.0068747
1402	0.0031752
1414	0.003283
1426	0.0036603
1438	0.0031899
1450	0.0021413
1462	0.0014945
1474	0.0012397
1486	0.0011515
1498	0.0010829
1510	0.0010339
1522	0.0010535
1534	0.001078
1546	0.0009996
1558	0.0009555
1570	0.0009212
1582	0.0008232
1594	0.0007742
1606	0.0007791
1618	0.000833
1630	0.000931
1642	0.0010437
1654	0.001176
1666	0.0010633
1678	0.0009408
1690	0.0011025
1702	0.0015386
1714	0.0021364
1726	0.0033614
1738	0.0052136
1750	0.0085211
1762	0.0191296
1774	0.0390138
1786	0.0423017
1798	0.0200949
1810	0.0082173
1822	0.0049588
1834	0.003577
1846	0.0025235
1858	0.001666
1870	0.0012544
1882	0.0011221
1894	0.0009359
1906	0.0006664
1918	0.0005488
1930	0.0005096
1942	0.0004704
1954	0.0004263
1966	0.0004116
1978	0.0004214
1990	0.0004018
2002	0.0004165
2014	0.0003822
2026	0.0003675
2038	0.0003283
2050	0.0003822
2062	0.0003871
2074	0.0004165
2086	0.0004704
2098	0.0004655
2110	0.0004704
2122	0.0004263
2134	0.0003479
2146	0.0003087
2158	0.0002891
2170	0.0002597
2182	0.0002254
2194	0.000196
2206	0.0001862
2218	0.000196
2230	0.0001568
2242	0.0001568
2254	0.0001764
2266	0.0001421
2278	0.0001617
2290	0.000147
2302	0.0001617
2314	8.33e-05
2326	8.82e-05
2338	0.0001225
2350	0.0001323
2362	0.0001323
2374	0.0001274
2386	0.000147
2398	0.0001274
2410	0.0001617
2422	0.0001764
2434	0.0001519
2446	0.0001323
2458	0.0001225
2470	9.31e-05
2482	9.31e-05
2494	9.8e-05
2506	5.39e-05
2518	4.9e-05
2530	6.86e-05
2542	9.8e-05
2554	8.33e-05
2566	9.8e-05
2578	8.82e-05
2590	8.33e-05
2602	0.0001078
2614	0.0001029
2626	8.82e-05
2638	7.35e-05
2650	0.0001176
2662	0.0001127
2674	0.0001519
2686	0.0001568
2698	0.0001666
2710	0.0001666
2722	0.0001617
2734	0.0001911
2746	0.0001568
2758	0.0001911
2770	0.0001764
2782	0.0002058
2794	0.0002009
2806	0.0001862
2818	0.0001715
2830	0.0001813
2842	0.0002156
2854	0.0002254
2866	0.0002548
2878	0.0001715
2890	0.0002254
2902	0.000245
2914	0.0002499
2926	0.0003283
2938	0.0006517
2950	0.0010094
2962	0.0009555
2974	0.000931
2986	0.0011172
2998	0.0013181
3010	0.0013328
3022	0.0011515
3034	0.0012544
3046	0.0011319
3058	0.0008379
3070	0.0007203
3082	0.0008183
3094	0.0012789
3106	0.001421
3118	0.0007056
3130	0.0003283
3142	0.000245
3154	0.0002254
3166	0.0001519
3178	0.0001372
3190	0.0001274
3202	0.0001225
3214	0.0001029
3226	0.0001274
3238	8.82e-05
3250	0.0001176
3262	5.88e-05
3274	4.41e-05
3286	0.0001127
3298	0.0001078
3310	2.45e-05
3322	6.37e-05
3334	8.82e-05
3346	3.92e-05
3358	9.8e-06
3370	9.31e-05
3382	8.82e-05
3394	9.8e-05
3406	6.86e-05
3418	1.47e-05
3430	9.31e-05
3442	8.33e-05
3454	5.88e-05
3466	9.8e-05
3478	5.39e-05
3490	0.0001323
3502	0.0002597
3514	0.0002548
3526	0.0005292
3538	0.0004361
3550	0.0003871
3562	0.0003234
3574	0.0001911
3586	0.0001862
3598	0.000147
3610	0.0001029
3622	8.33e-05
3634	6.86e-05
3646	5.39e-05
3658	9.31e-05
3670	5.88e-05
3682	9.8e-05
3694	7.84e-05
3706	7.35e-05
3718	9.31e-05
3730	0.0001127
3742	8.33e-05
3754	5.39e-05
3766	5.39e-05
3778	5.88e-05
3790	0.0001127
3802	4.9e-06
3814	0.0001176
3826	9.8e-05
3838	0.0001421
