Infrared Spectrum: 4-Methyl-7-ethoxycoumarin
Formula: C 12 H 12 O 3
CAS: 87-05-8
State: gas
Origin: EPA-IR VAPOR PHASE LIBRARY
1/CM	ABSORBANCE
549.8	0.003036
559.445	0.002746
569.09	0.003426
578.734	0.004136
588.379	0.001696
598.024	0.0005438
607.669	0.0003655
617.313	0.0006804
626.958	0.001836
636.603	0.003266
646.248	0.002456
655.893	0.001256
665.537	0.0010189
675.182	0.0012134
684.827	0.002026
694.472	0.003796
704.116	0.004066
713.761	0.002706
723.406	0.001706
733.051	0.001466
742.695	0.002096
752.34	0.001536
761.985	0.001526
771.63	0.002566
781.275	0.004406
790.919	0.006186
800.564	0.007876
810.209	0.009116
819.854	0.007136
829.498	0.008446
839.143	0.017786
848.788	0.036496
858.433	0.048496
868.078	0.028596
877.722	0.009706
887.367	0.006366
897.012	0.006546
906.657	0.006756
916.301	0.005946
925.946	0.004416
935.591	0.003306
945.236	0.002766
954.88	0.003106
964.525	0.004676
974.17	0.013346
983.815	0.021196
993.46	0.015706
1003.1	0.018236
1012.75	0.020636
1022.39	0.015366
1032.04	0.020786
1041.68	0.019526
1051.33	0.021776
1060.97	0.054246
1070.62	0.050766
1080.26	0.018366
1089.91	0.017206
1099.55	0.015686
1109.2	0.019926
1118.84	0.028536
1128.49	0.061976
1138.13	0.115056
1147.78	0.122786
1157.42	0.072996
1167.07	0.031086
1176.71	0.020066
1186.36	0.036536
1196	0.050866
1205.64	0.020936
1215.29	0.014836
1224.93	0.011906
1234.58	0.008776
1244.22	0.014206
1253.87	0.041616
1263.51	0.077086
1273.16	0.087156
1282.8	0.068856
1292.45	0.054986
1302.09	0.034756
1311.74	0.023636
1321.38	0.025306
1331.03	0.026106
1340.67	0.022726
1350.32	0.020666
1359.96	0.039096
1369.61	0.060526
1379.25	0.050996
1388.9	0.071676
1398.54	0.038246
1408.18	0.021036
1417.83	0.019496
1427.47	0.017726
1437.12	0.013886
1446.76	0.013396
1456.41	0.010996
1466.05	0.009806
1475.7	0.015016
1485.34	0.017016
1494.99	0.018096
1504.63	0.027336
1514.28	0.017886
1523.92	0.007136
1533.57	0.007226
1543.21	0.011876
1552.86	0.023126
1562.5	0.029226
1572.15	0.025206
1581.79	0.028066
1591.44	0.039846
1601.08	0.075516
1610.73	0.153646
1620.37	0.181186
1630.01	0.106196
1639.66	0.035526
1649.3	0.014586
1658.95	0.009686
1668.59	0.008196
1678.24	0.007546
1687.88	0.007586
1697.53	0.008756
1707.17	0.011996
1716.82	0.016026
1726.46	0.020056
1736.11	0.022876
1745.75	0.031846
1755.4	0.077196
1765.04	0.243876
1774.69	0.363986
1784.33	0.155956
1793.98	0.042146
1803.62	0.016656
1813.27	0.008926
1822.91	0.005916
1832.55	0.005106
1842.2	0.005126
1851.84	0.005216
1861.49	0.004906
1871.13	0.004326
1880.78	0.003426
1890.42	0.002456
1900.07	0.002176
1909.71	0.002126
1919.36	0.002096
1929	0.002106
1938.65	0.002116
1948.29	0.001916
1957.94	0.001766
1967.58	0.001726
1977.23	0.001836
1986.87	0.002016
1996.52	0.002146
2006.16	0.002146
2015.81	0.001826
2025.45	0.001566
2035.1	0.001486
2044.74	0.001566
2054.38	0.001706
2064.03	0.001686
2073.67	0.001516
2083.32	0.001296
2092.96	0.0011211
2102.61	0.0011336
2112.25	0.0011497
2121.9	0.0011604
2131.54	0.001246
2141.19	0.0012103
2150.83	0.0011918
2160.48	0.0010436
2170.12	0.0009201
2179.77	0.0010459
2189.41	0.0010326
2199.06	0.0011194
2208.7	0.0011341
2218.35	0.001143
2227.99	0.0011477
2237.64	0.0010862
2247.28	0.0011907
2256.92	0.001446
2266.57	0.001726
2276.21	0.001786
2285.86	0.002166
2295.5	0.002376
2305.15	0.002286
2314.79	0.001936
2324.44	0.001926
2334.08	0.002006
2343.73	0.001936
2353.37	0.001726
2363.02	0.001586
2372.66	0.001666
2382.31	0.001876
2391.95	0.002196
2401.6	0.002166
2411.24	0.001856
2420.89	0.001806
2430.53	0.001726
2440.18	0.001686
2449.82	0.001716
2459.47	0.001686
2469.11	0.001766
2478.75	0.001576
2488.4	0.001316
2498.04	0.0012089
2507.69	0.0011718
2517.33	0.001256
2526.98	0.0012
2536.62	0.001101
2546.27	0.000997
2555.91	0.0010398
2565.56	0.001189
2575.2	0.001256
2584.85	0.001516
2594.49	0.001606
2604.14	0.001806
2613.78	0.001796
2623.43	0.001786
2633.07	0.001706
2642.72	0.001626
2652.36	0.001356
2662.01	0.001256
2671.65	0.0011105
2681.29	0.0010309
2690.94	0.0010144
2700.58	0.0009422
2710.23	0.0011532
2719.87	0.001286
2729.52	0.001376
2739.16	0.001776
2748.81	0.002026
2758.45	0.002126
2768.1	0.002146
2777.74	0.002226
2787.39	0.001836
2797.03	0.001706
2806.68	0.001926
2816.32	0.002116
2825.97	0.002486
2835.61	0.002646
2845.26	0.002876
2854.9	0.003476
2864.55	0.004926
2874.19	0.007306
2883.84	0.009636
2893.48	0.010716
2903.12	0.010846
2912.77	0.012026
2922.41	0.013696
2932.06	0.017906
2941.7	0.019796
2951.35	0.015836
2960.99	0.013136
2970.64	0.014906
2980.28	0.021046
2989.93	0.030536
2999.57	0.021696
3009.22	0.009696
3018.86	0.005726
3028.51	0.004026
3038.15	0.003666
3047.8	0.003786
3057.44	0.005106
3067.09	0.004856
3076.73	0.004846
3086.38	0.005106
3096.02	0.003916
3105.67	0.002516
3115.31	0.002016
3124.95	0.001746
3134.6	0.001436
3144.24	0.0010955
3153.89	0.0010381
3163.53	0.0011267
3173.18	0.0008219
3182.82	0.0006964
3192.47	0.0008294
3202.11	0.0007657
3211.76	0.0007291
3221.4	0.0007784
3231.05	0.0009168
3240.69	0.0008466
3250.34	0.0006855
3259.98	0.0004909
3269.63	0.0005811
3279.27	0.0002072
3288.92	0.0003372
3298.56	0.0003408
3308.21	0.0001969
3317.85	0.0004568
3327.49	0.0005351
3337.14	0.0004735
3346.78	0.0004896
3356.43	0.0003769
3366.07	0.0001396
3375.72	0.0005307
3385.36	0.0007458
3395.01	0.0007095
3404.65	0.0006623
3414.3	0.0005795
3423.94	0.0004211
3433.59	0.0003436
3443.23	0.0005829
3452.88	0.0006096
3462.52	0.0007161
3472.17	0.0006866
3481.81	0.0009367
3491.46	0.0012217
3501.1	0.001436
3510.75	0.001836
3520.39	0.003036
3530.04	0.003536
3539.68	0.002206
3549.32	0.001606
3558.97	0.0012166
3568.61	0.0006854
3578.26	0.0006967
3587.9	0.0005583
3597.55	0.0008211
3607.19	0.0003896
3616.84	0.00024414
3626.48	0.0005782
3636.13	0.00029711
3645.77	0.0006103
3655.42	0.0004991
3665.06	0.0003436
3674.71	0.0003893
3684.35	0.0005074
3694	0.0004116
3703.64	0.0003649
3713.29	0.0004184
3722.93	0.0005196
3732.58	0.0007995
3742.22	0.0003321
3751.86	0.0004062
3761.51	0.0005403
3771.15	0.000573
3780.8	0.00025809
3790.44	0.0005925
3800.09	0.0004335
3809.73	0.0005317
3819.38	0.0002054
3829.02	0.0003823
3838.67	0.00029899
3848.31	0.0003999
3857.96	0.0005615
3867.6	0.0004219
3877.25	0.0007102
3886.89	0.0005866
3896.54	0.0005161
3906.18	0.000445
3915.83	0.0004664
3925.47	0.0004426
3935.12	0.000226361
3944.76	0.0005917
3954.41	0.0005255
3964.05	0.0007857
3973.69	0.0001754
3983.34	0.0005184
3992.98	0.0007252
