Infrared Spectrum: 4-tert-Butylphenyl salicylate
Formula: C 17 H 18 O 3
CAS: 87-18-3
State: gas
Instrument: HP-GC/MS/IRD
Origin: NIST Mass Spectrometry Data Center
1/CM	ABSORBANCE
550	0.0004563
562	0.0005213
574	0.0001716
586	5.2e-06
598	0.0002912
610	0.0001742
622	0.0002483
634	0.0003016
646	0.0006227
658	0.0010088
670	0.0007241
682	0.000988
694	0.0013611
706	0.0010556
718	0.0005486
730	0.0004667
742	0.0010218
754	0.0021177
766	0.0009386
778	0.0003588
790	0.0005551
802	0.0010283
814	0.0010283
826	0.0009204
838	0.0006669
850	0.0005551
862	0.0005343
874	0.0007332
886	0.0005707
898	0.0003185
910	0.0002132
922	0.0002275
934	0.0002847
946	0.0002808
958	0.0002054
970	0.0001911
982	0.0002717
994	0.0003731
1006	0.00091
1018	0.002223
1030	0.001157
1042	0.0012753
1054	0.0038025
1066	0.0046137
1078	0.0010036
1090	0.0008268
1102	0.0015899
1114	0.0020722
1126	0.0024882
1138	0.0016354
1150	0.0043316
1162	0.0062543
1174	0.011245
1186	0.0054132
1198	0.0095251
1210	0.0112853
1222	0.0062647
1234	0.003809
1246	0.0056836
1258	0.0053846
1270	0.0036491
1282	0.0042185
1294	0.0081614
1306	0.0080925
1318	0.0043329
1330	0.003211
1342	0.0013845
1354	0.0013637
1366	0.0017771
1378	0.0018057
1390	0.0018629
1402	0.0019604
1414	0.001352
1426	0.0009087
1438	0.0007748
1450	0.0010465
1462	0.0020397
1474	0.0034008
1486	0.0037583
1498	0.0031733
1510	0.0054392
1522	0.0018018
1534	0.0006513
1546	0.0004459
1558	0.0005187
1570	0.0010296
1582	0.0018889
1594	0.0016783
1606	0.0019318
1618	0.0020735
1630	0.0008203
1642	0.0004758
1654	0.0004381
1666	0.0005837
1678	0.0010218
1690	0.0023868
1702	0.0058864
1714	0.0049179
1726	0.0017134
1738	0.0006864
1750	0.0005811
1762	0.0008619
1774	0.0004888
1786	0.0001989
1798	0.0001612
1810	0.0001794
1822	0.0001066
1834	0.0001105
1846	8.32e-05
1858	0.0001001
1870	0.0001326
1882	0.0001456
1894	0.0001235
1906	0.0001001
1918	0.0001131
1930	0.0001378
1942	0.0001261
1954	0.0001118
1966	9.75e-05
1978	6.5e-05
1990	5.59e-05
2002	7.54e-05
2014	9.75e-05
2026	8.45e-05
2038	7.67e-05
2050	7.8e-05
2062	7.28e-05
2074	4.81e-05
2086	5.33e-05
2098	6.63e-05
2110	7.02e-05
2122	7.15e-05
2134	4.16e-05
2146	2.99e-05
2158	2.86e-05
2170	7.02e-05
2182	8.45e-05
2194	3.51e-05
2206	1.43e-05
2218	2.86e-05
2230	4.42e-05
2242	2.86e-05
2254	3.38e-05
2266	4.68e-05
2278	3.25e-05
2290	4.03e-05
2302	3.9e-05
2314	4.68e-05
2326	5.59e-05
2338	9.49e-05
2350	0.0001001
2362	0.0001144
2374	8.58e-05
2386	6.76e-05
2398	7.41e-05
2410	8.45e-05
2422	8.32e-05
2434	6.63e-05
2446	6.11e-05
2458	5.46e-05
2470	4.94e-05
2482	5.72e-05
2494	5.46e-05
2506	7.02e-05
2518	5.33e-05
2530	4.81e-05
2542	7.8e-05
2554	5.98e-05
2566	8.19e-05
2578	0.0001001
2590	7.41e-05
2602	0.0001118
2614	9.75e-05
2626	0.0001001
2638	0.0001248
2650	0.0001235
2662	0.0001053
2674	8.58e-05
2686	0.00013
2698	0.0001248
2710	0.0001313
2722	0.0001443
2734	0.0001365
2746	0.0001664
2758	0.0002028
2770	0.0001625
2782	0.0002028
2794	0.0001807
2806	0.0001521
2818	0.0001651
2830	0.0002327
2842	0.0002769
2854	0.0003874
2866	0.0007371
2878	0.0011973
2890	0.0011986
2902	0.0012948
2914	0.0016107
2926	0.0014976
2938	0.001612
2950	0.0023348
2962	0.0048568
2974	0.0052962
2986	0.0019318
2998	0.0008151
3010	0.0005447
3022	0.0005434
3034	0.0006474
3046	0.0009074
3058	0.0008905
3070	0.0010218
3082	0.0008489
3094	0.0007449
3106	0.0005759
3118	0.0004108
3130	0.0003562
3142	0.000325
3154	0.0003224
3166	0.0003614
3178	0.0003991
3190	0.0004277
3202	0.0005083
3214	0.0005915
3226	0.0006669
3238	0.0009269
3250	0.0011219
3262	0.0014027
3274	0.0013715
3286	0.0013351
3298	0.0012324
3310	0.0011011
3322	0.0009347
3334	0.0008658
3346	0.0008593
3358	0.0007631
3370	0.0006955
3382	0.0006474
3394	0.0005395
3406	0.0004524
3418	0.000325
3430	0.0003796
3442	0.0003263
3454	0.0002821
3466	0.0002834
3478	0.0003627
3490	0.0005837
3502	0.0005408
3514	0.0003809
3526	0.0002964
3538	0.0002093
3550	0.0001677
3562	0.0001105
3574	0.000273
3586	0.0001846
3598	0.0001326
3610	6.63e-05
3622	6.89e-05
3634	0.0001196
3646	0.0005109
3658	0.0005174
3670	0.0001131
3682	3.38e-05
3694	2.21e-05
3706	6.37e-05
3718	1.95e-05
3730	4.81e-05
3742	9.1e-06
3754	9.1e-06
3766	1.3e-05
3778	1.04e-05
3790	6.5e-06
3802	3.12e-05
3814	5.2e-06
3826	6.63e-05
3838	4.55e-05
