Infrared Spectrum: SALICYLANILIDE
Formula: C13 H11 N O2
CAS: 87-17-2
State: SOLID (SPLIT MULL)
Class: COBLENTZ III
Instrument: DOW KBr FOREPRISM-GRATING
Instrument parameters: BLAZED AT 3.5, 12.0, 20.0 MICRON AND CHANGED AT 5.0, 7.5, 14.9 MICRON
Sampling: TRANSMISSION
Resolution: 2
Origin: DOW CHEMICAL COMPANY
1/CM	TRANSMITTANCE
455	0.7824
464	0.7933
473	0.8015
482	0.8078
491	0.8101
500	0.8037
509	0.4526
518	0.7975
527	0.7612
536	0.5965
545	0.8072
554	0.8142
563	0.8095
572	0.8157
581	0.7719
590	0.8253
599	0.8332
608	0.8299
617	0.8278
626	0.8323
635	0.8281
644	0.8211
653	0.8007
662	0.7656
671	0.7425
680	0.4834
689	0.4688
698	0.6287
707	0.4137
716	0.3916
725	0.6404
734	0.6432
743	0.2765
752	0.0513
761	0.679
770	0.7
779	0.7698
788	0.7137
797	0.7511
806	0.7671
815	0.7869
824	0.7318
833	0.8125
842	0.8312
851	0.7989
860	0.8267
869	0.8418
878	0.8352
887	0.7591
896	0.7847
905	0.6385
914	0.8492
923	0.856
932	0.8518
941	0.8413
950	0.823
959	0.8517
968	0.8521
977	0.8417
986	0.8687
995	0.8537
1004	0.8657
1013	0.8594
1022	0.8171
1031	0.8467
1040	0.7918
1049	0.8525
1058	0.8463
1067	0.7875
1076	0.7718
1085	0.8097
1094	0.6292
1103	0.7962
1112	0.8321
1121	0.8015
1130	0.7107
1139	0.7924
1148	0.5575
1157	0.5069
1166	0.7801
1175	0.5474
1184	0.701
1193	0.5784
1202	0.4398
1211	0.6978
1220	0.6321
1229	0.3597
1238	0.1765
1247	0.3782
1256	0.6915
1265	0.771
1274	0.7641
1283	0.7483
1292	0.7146
1301	0.6674
1310	0.6515
1319	0.562
1328	0.3156
1337	0.3026
1346	0.408
1355	0.4222
1364	0.3974
1373	0.3039
1382	0.4099
1391	0.5431
1400	0.5795
1409	0.612
1418	0.6203
1427	0.6072
1436	0.5495
1445	0.4623
1454	0.1057
1463	0.5702
1472	0.5572
1481	0.4853
1490	0.4837
1499	0.3264
1508	0.4517
1517	0.5248
1526	0.5036
1535	0.4533
1544	0.3743
1553	0.1848
1562	0.1844
1571	0.2485
1580	0.4618
1589	0.3029
1598	0.2743
1607	0.1825
1616	0.1008
1625	0.1114
1634	0.2897
1643	0.5027
1652	0.684
1661	0.7615
1670	0.8099
1679	0.8398
1688	0.8578
1697	0.8598
1706	0.8606
1715	0.8555
1724	0.8465
1733	0.8521
1742	0.855
1751	0.8625
1760	0.8614
1769	0.8557
1778	0.849
1787	0.8384
1796	0.8397
1805	0.8334
1814	0.8462
1823	0.8441
1832	0.8477
1841	0.8447
1850	0.8334
1859	0.8324
1868	0.8342
1877	0.8345
1886	0.8375
1895	0.8327
1904	0.8295
1913	0.8054
1922	0.8263
1931	0.8137
1940	0.8168
1949	0.8278
1958	0.8252
1967	0.8294
1976	0.8278
1985	0.8271
1994	0.8378
2003	0.8733
2012	0.8714
2021	0.8668
2030	0.8648
2039	0.863
2048	0.8607
2057	0.8578
2066	0.8542
2075	0.851
2084	0.8483
2093	0.8462
2102	0.8446
2111	0.8425
2120	0.8404
2129	0.8384
2138	0.8356
2147	0.8324
2156	0.8284
2165	0.8243
2174	0.8203
2183	0.8155
2192	0.8142
2201	0.8137
2210	0.8114
2219	0.8067
2228	0.8008
2237	0.7941
2246	0.7875
2255	0.7812
2264	0.7755
2273	0.7696
2282	0.7638
2291	0.7578
2300	0.7522
2309	0.7464
2318	0.74
2327	0.7355
2336	0.7324
2345	0.7299
2354	0.7265
2363	0.7243
2372	0.7233
2381	0.7174
2390	0.7111
2399	0.7037
2408	0.6976
2417	0.6922
2426	0.6862
2435	0.6775
2444	0.6669
2453	0.6557
2462	0.6456
2471	0.6357
2480	0.6355
2489	0.6312
2498	0.6241
2507	0.613
2516	0.6
2525	0.5852
2534	0.565
2543	0.5444
2552	0.5247
2561	0.5028
2570	0.4998
2579	0.5053
2588	0.5184
2597	0.5319
2606	0.5288
2615	0.5173
2624	0.5065
2633	0.4955
2642	0.4858
2651	0.4765
2660	0.4664
2669	0.4553
2678	0.4457
2687	0.4378
2696	0.446
2705	0.4592
2714	0.472
2723	0.4816
2732	0.4854
2741	0.493
2750	0.5026
2759	0.5043
2768	0.5031
2777	0.4977
2786	0.4912
2795	0.483
2804	0.4739
2813	0.4653
2822	0.4576
2831	0.4491
2840	0.4477
2849	0.4515
2858	0.4591
2867	0.4627
2876	0.4562
2885	0.4462
2894	0.435
2903	0.4249
2912	0.4182
2921	0.4144
2930	0.408
2939	0.4071
2948	0.4087
2957	0.4133
2966	0.4191
2975	0.4258
2984	0.4312
2993	0.4331
3002	0.4306
3011	0.4229
3020	0.4128
3029	0.4057
3038	0.4008
3047	0.411
3056	0.4224
3065	0.4241
3074	0.4302
3083	0.4452
3092	0.499
3101	0.5093
3110	0.519
3119	0.5306
3128	0.5442
3137	0.5537
3146	0.5534
3155	0.5523
3164	0.5609
3173	0.5758
3182	0.586
3191	0.5891
3200	0.5879
3209	0.5872
3218	0.5914
3227	0.5996
3236	0.5994
3245	0.5952
3254	0.5878
3263	0.5891
3272	0.5884
3281	0.5807
3290	0.5664
3299	0.551
3308	0.5486
3317	0.5578
3326	0.5738
3335	0.6351
3344	0.6725
3353	0.6964
3362	0.7054
3371	0.7089
3380	0.7105
3389	0.7103
3398	0.7086
3407	0.7069
3416	0.7069
3425	0.706
3434	0.7042
3443	0.7022
3452	0.6999
3461	0.6975
3470	0.6965
3479	0.6956
3488	0.6937
3497	0.6922
3506	0.6911
3515	0.6894
3524	0.6876
3533	0.6862
3542	0.685
3551	0.6837
3560	0.6826
3569	0.6807
3578	0.6778
3587	0.6719
3596	0.6499
3605	0.675
3614	0.6691
3623	0.67
3632	0.6688
3641	0.6672
3650	0.6662
3659	0.6658
3668	0.666
3677	0.6664
3686	0.666
3695	0.6614
3704	0.6544
3713	0.6548
3722	0.6541
3731	0.6511
3740	0.6526
3749	0.6517
3758	0.6493
3767	0.6464
3776	0.6439
3785	0.6414
3794	0.6396
3803	0.6389
3812	0.6386
