Infrared Spectrum: Ethyl o-toluate
Formula: C 10 H 12 O 2
CAS: 87-24-1
State: gas
Origin: EPA-IR VAPOR PHASE LIBRARY
1/CM	ABSORBANCE
549.8	0.0009975
559.445	0.0013746
569.09	0.0011607
578.735	0.00111044
588.38	0.000795
598.025	0.00108963
607.67	0.000794
617.315	0.000816
626.96	0.0009895
636.605	0.0011603
646.251	0.0014944
655.896	0.00355
665.541	0.00499
675.186	0.00263
684.831	0.0022
694.476	0.00274
704.121	0.00293
713.766	0.00483
723.411	0.01491
733.056	0.03274
742.701	0.02404
752.346	0.01016
761.991	0.00503
771.636	0.00368
781.281	0.00326
790.926	0.00278
800.571	0.00246
810.216	0.00222
819.861	0.00225
829.507	0.0020341
839.152	0.00282
848.797	0.00381
858.442	0.00393
868.087	0.00327
877.732	0.00285
887.377	0.0020271
897.022	0.0014996
906.667	0.001492
916.312	0.0015986
925.957	0.0016166
935.602	0.0018522
945.247	0.00221
954.892	0.00217
964.537	0.00227
974.182	0.0023
983.827	0.00264
993.472	0.00339
1003.12	0.00457
1012.76	0.00573
1022.41	0.00594
1032.05	0.00637
1041.7	0.01161
1051.34	0.01727
1060.99	0.02144
1070.63	0.04488
1080.28	0.0747
1089.92	0.07141
1099.57	0.0464
1109.21	0.02557
1118.86	0.02249
1128.5	0.02914
1138.15	0.03136
1147.79	0.02142
1157.44	0.01406
1167.08	0.01338
1176.73	0.0108
1186.37	0.00892
1196.02	0.00919
1205.66	0.01022
1215.31	0.01327
1224.95	0.02189
1234.6	0.04266
1244.24	0.08979
1253.89	0.12818
1263.53	0.08562
1273.18	0.04165
1282.82	0.0436
1292.47	0.04482
1302.11	0.02354
1311.76	0.01081
1321.4	0.00661
1331.05	0.00488
1340.69	0.00414
1350.34	0.00442
1359.98	0.00722
1369.63	0.00974
1379.27	0.00765
1388.92	0.00713
1398.56	0.00653
1408.21	0.00576
1417.85	0.00594
1427.5	0.00714
1437.14	0.00936
1446.79	0.01119
1456.43	0.01226
1466.08	0.01252
1475.73	0.01144
1485.37	0.00959
1495.02	0.00699
1504.66	0.0042
1514.31	0.00335
1523.95	0.00302
1533.6	0.00296
1543.24	0.00292
1552.89	0.00332
1562.53	0.00372
1572.18	0.00453
1581.82	0.00496
1591.47	0.0054
1601.11	0.00623
1610.76	0.00507
1620.4	0.00305
1630.05	0.00261
1639.69	0.00259
1649.34	0.00256
1658.98	0.00279
1668.63	0.00329
1678.27	0.00436
1687.92	0.00584
1697.56	0.00823
1707.21	0.01356
1716.85	0.02762
1726.5	0.06042
1736.14	0.08398
1745.79	0.06203
1755.43	0.02888
1765.08	0.01461
1774.72	0.00764
1784.37	0.00451
1794.01	0.00332
1803.66	0.00296
1813.3	0.00274
1822.95	0.00226
1832.59	0.00205
1842.24	0.0019707
1851.88	0.0017727
1861.53	0.0016657
1871.17	0.0015459
1880.82	0.0017086
1890.46	0.0017983
1900.11	0.0018914
1909.75	0.0020241
1919.4	0.00255
1929.04	0.00249
1938.69	0.00227
1948.33	0.00225
1957.98	0.00215
1967.62	0.0015948
1977.27	0.0014044
1986.91	0.0013857
1996.56	0.00131
2006.2	0.0012338
2015.85	0.0012398
2025.49	0.0012339
2035.14	0.0012629
2044.78	0.0011806
2054.43	0.0011945
2064.07	0.001223
2073.72	0.0013141
2083.36	0.0013421
2093.01	0.0013813
2102.65	0.0014436
2112.3	0.0013647
2121.94	0.0012773
2131.59	0.0011638
2141.23	0.00107437
2150.88	0.00108588
2160.52	0.00104368
2170.17	0.00105458
2179.81	0.0010082
2189.46	0.00103113
2199.1	0.0009905
2208.75	0.00104742
2218.39	0.00107952
2228.04	0.00105548
2237.68	0.00106707
2247.33	0.00112834
2256.97	0.00108386
2266.62	0.00112015
2276.26	0.00109324
2285.91	0.00104342
2295.55	0.00113831
2305.2	0.00111462
2314.84	0.00112884
2324.49	0.0011953
2334.13	0.0011757
2343.78	0.0011634
2353.42	0.0010098
2363.07	0.00110214
2372.72	0.00109146
2382.36	0.00108301
2392.01	0.00113591
2401.65	0.0010053
2411.3	0.0009934
2420.94	0.0010027
2430.59	0.0009924
2440.23	0.000982
2449.88	0.0009608
2459.52	0.00103088
2469.17	0.000952
2478.81	0.00104291
2488.46	0.000909
2498.1	0.0010079
2507.75	0.000932
2517.39	0.000912
2527.04	0.000904
2536.68	0.000882
2546.33	0.00093
2555.97	0.000892
2565.62	0.0009721
2575.26	0.0009585
2584.91	0.0010022
2594.55	0.000856
2604.2	0.000936
2613.84	0.000781
2623.49	0.000765
2633.13	0.000813
2642.78	0.000705
2652.42	0.00072
2662.07	0.000752
2671.71	0.000779
2681.36	0.000837
2691	0.000787
2700.65	0.000827
2710.29	0.000853
2719.94	0.0009401
2729.58	0.00111356
2739.23	0.0011609
2748.87	0.0012643
2758.52	0.0014045
2768.16	0.0011887
2777.81	0.0010173
2787.45	0.0013138
2797.1	0.0012547
2806.74	0.0013622
2816.39	0.0016086
2826.03	0.0017897
2835.68	0.0020368
2845.32	0.0023
2854.97	0.00283
2864.61	0.00361
2874.26	0.00478
2883.9	0.00614
2893.55	0.00626
2903.19	0.00663
2912.84	0.00751
2922.48	0.00852
2932.13	0.01193
2941.77	0.01616
2951.42	0.0149
2961.06	0.01327
2970.71	0.01638
2980.35	0.02286
2990	0.02231
2999.64	0.01452
3009.29	0.00998
3018.93	0.00852
3028.58	0.00885
3038.22	0.00799
3047.87	0.00668
3057.51	0.00838
3067.16	0.01094
3076.8	0.01073
3086.45	0.00697
3096.09	0.0038
3105.74	0.00289
3115.38	0.00212
3125.03	0.001541
3134.67	0.0013868
3144.32	0.0011646
3153.96	0.00109276
3163.61	0.00108941
3173.25	0.0009401
3182.9	0.000797
3192.54	0.000722
3202.19	0.00067
3211.83	0.000702
3221.48	0.000663
3231.12	0.000634
3240.77	0.000569
3250.41	0.000358
3260.06	0.000425
3269.7	0.000439
3279.35	0.000471
3289	0.000518
3298.64	0.00038
3308.29	0.000352
3317.93	0.000487
3327.58	0.000475
3337.22	0.000539
3346.87	0.000441
3356.51	0.000285
3366.16	0.000508
3375.8	0.000515
3385.45	0.000556
3395.09	0.000471
3404.74	0.000539
3414.38	0.000462
3424.03	0.000786
3433.67	0.000862
3443.32	0.00083
3452.96	0.00105454
3462.61	0.00113515
3472.25	0.000589
3481.9	0.000492
3491.54	0.000646
3501.19	0.000269
3510.83	0.000362
3520.48	0.000283
3530.12	0.000387
3539.77	0.000359
3549.41	0.000378
3559.06	0.000139
3568.7	0.000424
3578.35	0.000302
3587.99	0.000399
3597.64	0.000471
3607.28	0.000472
3616.93	0.000284
3626.57	0.000199
3636.22	0.000422
3645.86	0.000283
3655.51	0.000363
3665.15	0.000353
3674.8	0.000307
3684.44	0.00023
3694.09	0.000119
3703.73	0.00049
3713.38	0.00048
3723.02	0.000399
3732.67	0.000483
3742.31	0.000363
3751.96	0.000386
3761.6	0.000409
3771.25	0.000301
3780.89	0.000334
3790.54	0.000274
3800.18	0.000282
3809.83	0.000509
3819.47	0.00041
3829.12	0.000459
3838.76	0.000438
3848.41	0.000501
3858.05	0.000326
3867.7	0.000464
3877.34	0.000693
3886.99	0.000338
3896.63	0.000404
3906.28	0.000476
3915.92	0.000549
3925.57	0.000388
3935.21	0.000469
3944.86	0.000354
3954.5	0.000245
3964.15	0.000505
3973.79	0.000713
3983.44	0.000495
3993.08	0.000513
