Infrared Spectrum: .beta.-Phenylethyl salicylate
Formula: C 15 H 14 O 3
CAS: 87-22-9
State: gas
Origin: EPA-IR VAPOR PHASE LIBRARY
1/CM	ABSORBANCE
549.8	0.00874
559.445	0.01188
569.09	0.01451
578.734	0.01126
588.379	0.00793
598.024	0.00791
607.669	0.00807
617.313	0.00828
626.958	0.00815
636.603	0.00793
646.248	0.00973
655.893	0.01626
665.537	0.03124
675.182	0.0332
684.827	0.0466
694.472	0.08522
704.116	0.08344
713.761	0.05301
723.406	0.03518
733.051	0.03642
742.695	0.068
752.34	0.09848
761.985	0.05667
771.63	0.02003
781.275	0.01051
790.919	0.00923
800.564	0.01078
810.209	0.01117
819.854	0.01126
829.498	0.0112
839.143	0.00917
848.788	0.00956
858.433	0.01383
868.078	0.01275
877.722	0.009
887.367	0.00591
897.012	0.00463
906.657	0.00466
916.301	0.00408
925.946	0.00448
935.591	0.00571
945.236	0.00859
954.88	0.01411
964.525	0.02126
974.17	0.01872
983.815	0.01598
993.46	0.01785
1003.1	0.01384
1012.75	0.0131
1022.39	0.02312
1032.04	0.04131
1041.68	0.02364
1051.33	0.01917
1060.97	0.02651
1070.62	0.0566
1080.26	0.12708
1089.91	0.14581
1099.55	0.06102
1109.2	0.04941
1118.84	0.05318
1128.49	0.09702
1138.13	0.1258
1147.78	0.07811
1157.42	0.25704
1167.07	0.08058
1176.71	0.07297
1186.36	0.0681
1196	0.10157
1205.64	0.1837
1215.29	0.19732
1224.93	0.13686
1234.58	0.12001
1244.22	0.15348
1253.87	0.19417
1263.51	0.12063
1273.16	0.09305
1282.8	0.11909
1292.45	0.21095
1302.09	0.30801
1311.74	0.16947
1321.38	0.13723
1331.03	0.08989
1340.67	0.0522
1350.32	0.03469
1359.96	0.0301
1369.61	0.03345
1379.25	0.0483
1388.9	0.07207
1398.54	0.07383
1408.18	0.06445
1417.83	0.04785
1427.47	0.03317
1437.12	0.02997
1446.76	0.03557
1456.41	0.0512
1466.05	0.07529
1475.7	0.09871
1485.34	0.10547
1494.99	0.06897
1504.63	0.04277
1514.28	0.02141
1523.92	0.01342
1533.57	0.01082
1543.21	0.01032
1552.86	0.01208
1562.5	0.01725
1572.15	0.03119
1581.79	0.05642
1591.44	0.05265
1601.08	0.05066
1610.73	0.07886
1620.37	0.06427
1630.01	0.02428
1639.66	0.01973
1649.3	0.02444
1658.95	0.03265
1668.59	0.0518
1678.24	0.11313
1687.88	0.22573
1697.53	0.2134
1707.17	0.09496
1716.82	0.03924
1726.46	0.02336
1736.11	0.02622
1745.75	0.03643
1755.4	0.02309
1765.04	0.01071
1774.69	0.00752
1784.33	0.00687
1793.98	0.00788
1803.62	0.00853
1813.27	0.00713
1822.91	0.00482
1832.55	0.00446
1842.2	0.00389
1851.84	0.0036
1861.49	0.00402
1871.13	0.00399
1880.78	0.00405
1890.42	0.00368
1900.07	0.0036
1909.71	0.0043
1919.36	0.00664
1929	0.00608
1938.65	0.00598
1948.29	0.00661
1957.94	0.00467
1967.58	0.00268
1977.23	0.00202
1986.87	0.00192
1996.52	0.00168
2006.16	0.00148
2015.81	0.00152
2025.45	0.00162
2035.1	0.00181
2044.74	0.00194
2054.38	0.00216
2064.03	0.00219
2073.67	0.00201
2083.32	0.00187
2092.96	0.00175
2102.61	0.00185
2112.25	0.00192
2121.9	0.00202
2131.54	0.00199
2141.19	0.00172
2150.83	0.00163
2160.48	0.00154
2170.12	0.0015
2179.77	0.00142
2189.41	0.00128
2199.06	0.0012
2208.7	0.00122
2218.35	0.00122
2227.99	0.00118
2237.64	0.00125
2247.28	0.00136
2256.92	0.00133
2266.57	0.0014
2276.21	0.00159
2285.86	0.00164
2295.5	0.00159
2305.15	0.00152
2314.79	0.00182
2324.44	0.00157
2334.08	0.00168
2343.73	0.00191
2353.37	0.00191
2363.02	0.0019
2372.66	0.0018
2382.31	0.00187
2391.95	0.00185
2401.6	0.00176
2411.24	0.0018
2420.89	0.00184
2430.53	0.00184
2440.18	0.00171
2449.82	0.00154
2459.47	0.00153
2469.11	0.00151
2478.75	0.00155
2488.4	0.00163
2498.04	0.0019
2507.69	0.00191
2517.33	0.00188
2526.98	0.00189
2536.62	0.00214
2546.27	0.00212
2555.91	0.00212
2565.56	0.00204
2575.2	0.00205
2584.85	0.00201
2594.49	0.00208
2604.14	0.00234
2613.78	0.00265
2623.43	0.00277
2633.07	0.00275
2642.72	0.00256
2652.36	0.00223
2662.01	0.00197
2671.65	0.00199
2681.29	0.00247
2690.94	0.00273
2700.58	0.00276
2710.23	0.00271
2719.87	0.0029
2729.52	0.00298
2739.16	0.00327
2748.81	0.00344
2758.45	0.00376
2768.1	0.00389
2777.74	0.00396
2787.39	0.00389
2797.03	0.00361
2806.68	0.00342
2816.32	0.00344
2825.97	0.00394
2835.61	0.00474
2845.26	0.00588
2854.9	0.00713
2864.55	0.00753
2874.19	0.00799
2883.84	0.00859
2893.48	0.01049
2903.12	0.0138
2912.77	0.01713
2922.41	0.02162
2932.06	0.02103
2941.7	0.02054
2951.35	0.02343
2960.99	0.03239
2970.64	0.03517
2980.28	0.02411
2989.93	0.01915
2999.57	0.01813
3009.22	0.01744
3018.86	0.02136
3028.51	0.03527
3038.15	0.04136
3047.8	0.02965
3057.44	0.03247
3067.09	0.04722
3076.73	0.0504
3086.38	0.03438
3096.02	0.02805
3105.67	0.01927
3115.31	0.01373
3124.95	0.0101
3134.6	0.00881
3144.24	0.00889
3153.89	0.0094
3163.53	0.01048
3173.18	0.0116
3182.82	0.01288
3192.47	0.01468
3202.11	0.01764
3211.76	0.02176
3221.4	0.02753
3231.05	0.03454
3240.69	0.04109
3250.34	0.0456
3259.98	0.04622
3269.63	0.04276
3279.27	0.03835
3288.92	0.03518
3298.56	0.0322
3308.21	0.02966
3317.85	0.02758
3327.49	0.02574
3337.14	0.02464
3346.78	0.02336
3356.43	0.02138
3366.07	0.01978
3375.72	0.01827
3385.36	0.0161
3395.01	0.01452
3404.65	0.01278
3414.3	0.01148
3423.94	0.01065
3433.59	0.00987
3443.23	0.00957
3452.88	0.01032
3462.52	0.01274
3472.17	0.01939
3481.81	0.02238
3491.46	0.01711
3501.1	0.01304
3510.75	0.0109
3520.39	0.00839
3530.04	0.00621
3539.68	0.00503
3549.32	0.00406
3558.97	0.00345
3568.61	0.00301
3578.26	0.00265
3587.9	0.00231
3597.55	0.0022
3607.19	0.00192
3616.84	0.00178
3626.48	0.00161
3636.13	0.00129
3645.77	0.00142
3655.42	0.00109
3665.06	0.00101
3674.71	0.0009286
3684.35	0.0006922
3694	0.0006162
3703.64	0.0005752
3713.29	0.0008165
3722.93	0.0005027
3732.58	0.0005864
3742.22	0.0006426
3751.86	0.0006977
3761.51	0.0004538
3771.15	0.0005106
3780.8	0.0004519
3790.44	0.0006188
3800.09	0.0005165
3809.73	0.0004519
3819.38	0.0004337
3829.02	0.0005353
3838.67	0.0004847
3848.31	0.000414
3857.96	0.000428
3867.6	0.0005844
3877.25	0.0006631
3886.89	0.0006923
3896.54	0.0005918
3906.18	0.0007427
3915.83	0.0006583
3925.47	0.0006524
3935.12	0.0008605
3944.76	0.0007131
3954.41	0.0008037
3964.05	0.0008335
3973.69	0.0005932
3983.34	0.0003068
3992.98	0.000604
