Infrared Spectrum: ACETYL-DL-TRYPTOPHAN
Formula: C13 H14 N2 O3
CAS: 87-32-1
State: SOLID (MINERAL OIL MULL)
Class: COBLENTZ
Instrument: Not specified, most likely a prism, grating, or hybrid spectrometer.
Sampling: TRANSMISSION
Resolution: 4
Origin: DOW CHEMICAL COMPANY
MICROMETERS	TRANSMITTANCE
2.075	0.751
2.11608	0.758
2.15715	0.763
2.19823	0.761
2.2393	0.753
2.28038	0.743
2.32146	0.76
2.36253	0.773
2.40361	0.777
2.44469	0.794
2.48576	0.796
2.52684	0.801
2.56791	0.818
2.60899	0.833
2.65007	0.827
2.69114	0.84
2.73222	0.83
2.77329	0.827
2.81437	0.815
2.85545	0.767
2.89652	0.522
2.9376	0.214
2.97867	0.335
3.01975	0.587
3.06083	0.611
3.1019	0.606
3.14298	0.561
3.18406	0.508
3.22513	0.453
3.26621	0.39
3.30728	0.345
3.34836	0.162
3.38944	0.035
3.43051	0.059
3.47159	0.094
3.51266	0.332
3.55374	0.535
3.59482	0.607
3.63589	0.635
3.67697	0.652
3.71804	0.667
3.75912	0.638
3.8002	0.631
3.84127	0.671
3.88235	0.691
3.92343	0.727
3.9645	0.753
4.00558	0.76
4.04665	0.803
4.08773	0.823
4.12881	0.835
4.16988	0.844
4.21096	0.856
4.25203	0.875
4.29311	0.905
4.33419	0.904
4.37526	0.9
4.41634	0.907
4.45742	0.907
4.49849	0.907
4.53957	0.912
4.58064	0.916
4.62172	0.921
4.6628	0.921
4.70387	0.924
4.74495	0.926
4.78602	0.926
4.8271	0.926
4.86818	0.924
4.90925	0.928
4.95033	0.931
4.9914	0.933
5.03248	0.936
5.07356	0.943
5.11463	0.941
5.15571	0.921
5.19679	0.922
5.23786	0.917
5.27894	0.91
5.32001	0.922
5.36109	0.924
5.40217	0.919
5.44324	0.924
5.48432	0.919
5.52539	0.902
5.56647	0.878
5.60755	0.832
5.64862	0.763
5.6897	0.681
5.73078	0.506
5.77185	0.244
5.81293	0.107
5.854	0.13
5.89508	0.378
5.93616	0.638
5.97723	0.65
6.01831	0.566
6.05938	0.457
6.10046	0.176
6.14154	0.162
6.18261	0.232
6.22369	0.404
6.26476	0.542
6.30584	0.563
6.34692	0.476
6.38799	0.364
6.42907	0.143
6.47015	0.162
6.51122	0.409
6.5523	0.5
6.59337	0.611
6.63445	0.676
6.67553	0.702
6.7166	0.666
6.75768	0.534
6.79875	0.33
6.83983	0.253
6.88091	0.337
6.92198	0.458
6.96306	0.544
7.00413	0.561
7.04521	0.522
7.08629	0.493
7.12736	0.57
7.16844	0.595
7.20952	0.417
7.25059	0.316
7.29167	0.469
7.33274	0.46
7.37382	0.614
7.4149	0.599
7.45597	0.582
7.49705	0.595
7.53812	0.467
7.5792	0.592
7.62028	0.674
7.66135	0.686
7.70243	0.727
7.74351	0.736
7.78458	0.693
7.82566	0.667
7.86673	0.66
7.90781	0.472
7.94889	0.294
7.98996	0.162
8.03104	0.196
8.07211	0.234
8.11319	0.41
8.15427	0.547
8.19534	0.625
8.23642	0.683
8.27749	0.712
8.31857	0.734
8.35965	0.75
8.40072	0.741
8.4418	0.666
8.48288	0.626
8.52395	0.688
8.56503	0.763
8.6061	0.779
8.64718	0.727
8.68826	0.676
8.72933	0.705
8.77041	0.784
8.81148	0.767
8.85256	0.695
8.89364	0.647
8.93471	0.671
8.97579	0.76
9.01687	0.801
9.05794	0.773
9.09902	0.652
9.14009	0.633
9.18117	0.724
9.22225	0.789
9.26332	0.797
9.3044	0.763
9.34547	0.662
9.38655	0.64
9.42763	0.664
9.4687	0.647
9.50978	0.594
9.55085	0.462
9.59193	0.453
9.63301	0.626
9.67408	0.705
9.71516	0.75
9.75624	0.779
9.79731	0.787
9.83839	0.787
9.87946	0.772
9.92054	0.731
9.96162	0.765
10.0027	0.803
10.0438	0.833
10.0848	0.847
10.1259	0.852
10.167	0.852
10.2081	0.797
10.2491	0.7
10.2902	0.611
10.3313	0.683
10.3724	0.792
10.4135	0.833
10.4545	0.847
10.4956	0.852
10.5367	0.856
10.5778	0.864
10.6188	0.869
10.6599	0.857
10.701	0.845
10.7421	0.857
10.7831	0.869
10.8242	0.876
10.8653	0.878
10.9064	0.878
10.9474	0.875
10.9885	0.871
11.0296	0.864
11.0707	0.854
11.1117	0.839
11.1528	0.82
11.1939	0.801
11.235	0.779
11.2761	0.75
11.3171	0.729
11.3582	0.702
11.3993	0.686
11.4404	0.679
11.4814	0.686
11.5225	0.702
11.5636	0.72
11.6047	0.736
11.6457	0.748
11.6868	0.741
11.7279	0.739
11.769	0.741
11.81	0.731
11.8511	0.732
11.8922	0.75
11.9333	0.792
11.9743	0.833
12.0154	0.847
12.0565	0.856
12.0976	0.856
12.1387	0.796
12.1797	0.741
12.2208	0.708
12.2619	0.722
12.303	0.768
12.344	0.799
12.3851	0.815
12.4262	0.83
12.4673	0.837
12.5083	0.845
12.5494	0.851
12.5905	0.852
12.6316	0.854
12.6726	0.854
12.7137	0.854
12.7548	0.847
12.7959	0.83
12.8369	0.796
12.878	0.782
12.9191	0.789
12.9602	0.811
13.0012	0.808
13.0423	0.773
13.0834	0.739
13.1245	0.69
13.1656	0.609
13.2066	0.539
13.2477	0.476
13.2888	0.361
13.3299	0.246
13.3709	0.184
13.412	0.148
13.4531	0.2
13.4942	0.361
13.5352	0.488
13.5763	0.633
13.6174	0.693
13.6585	0.717
13.6995	0.732
13.7406	0.732
13.7817	0.732
13.8228	0.732
13.8638	0.736
13.9049	0.738
13.946	0.741
13.9871	0.746
14.0282	0.748
14.0692	0.75
14.1103	0.75
14.1514	0.748
14.1925	0.744
14.2335	0.738
14.2746	0.732
14.3157	0.722
14.3568	0.712
14.3978	0.702
14.4389	0.69
14.48	0.674
14.5211	0.659
14.5621	0.65
14.6032	0.645
14.6443	0.638
14.6854	0.633
14.7264	0.626
14.7675	0.625
14.8086	0.618
14.8497	0.609
14.8908	0.602
14.9318	0.595
14.9729	0.589
15.014	0.58
15.0551	0.563
15.0961	0.551
15.1372	0.544
15.1783	0.532
15.2194	0.522
15.2604	0.513
15.3015	0.506
15.3426	0.501
15.3837	0.498
15.4247	0.493
15.4658	0.488
15.5069	0.479
15.548	0.472
15.589	0.467
15.6301	0.46
15.6712	0.453
15.7123	0.445
15.7533	0.434
15.7944	0.426
15.8355	0.421
15.8766	0.416
15.9177	0.419
