Infrared Spectrum: VIOLURIC ACID
Formula: C4 H3 N3 O4
CAS: 87-39-8
State: SOLID (MINERAL OIL MULL)
Class: COBLENTZ
Instrument: Not specified, most likely a prism, grating, or hybrid spectrometer.
Sampling: TRANSMISSION
Resolution: 4
MICROMETERS	TRANSMITTANCE
2.027	0.773
2.06812	0.775
2.10924	0.78
2.15035	0.785
2.19147	0.789
2.23259	0.792
2.27371	0.787
2.31482	0.779
2.35594	0.791
2.39706	0.801
2.43818	0.808
2.4793	0.825
2.52041	0.837
2.56153	0.845
2.60265	0.854
2.64377	0.863
2.68488	0.863
2.726	0.861
2.76712	0.797
2.80824	0.636
2.84936	0.561
2.89047	0.606
2.93159	0.655
2.97271	0.691
3.01383	0.638
3.05494	0.561
3.09606	0.469
3.13718	0.402
3.1783	0.5
3.21942	0.529
3.26053	0.481
3.30165	0.44
3.34277	0.414
3.38389	0.226
3.425	0.061
3.46612	0.159
3.50724	0.22
3.54836	0.585
3.58948	0.695
3.63059	0.743
3.67171	0.758
3.71283	0.78
3.75395	0.787
3.79506	0.808
3.83618	0.823
3.8773	0.833
3.91842	0.845
3.95954	0.854
4.00065	0.861
4.04177	0.866
4.08289	0.873
4.12401	0.878
4.16512	0.883
4.20624	0.888
4.24736	0.895
4.28848	0.9
4.3296	0.902
4.37071	0.905
4.41183	0.91
4.45295	0.912
4.49407	0.912
4.53518	0.916
4.5763	0.921
4.61742	0.921
4.65854	0.919
4.69965	0.917
4.74077	0.921
4.78189	0.926
4.82301	0.929
4.86413	0.929
4.90524	0.931
4.94636	0.934
4.98748	0.938
5.0286	0.933
5.06971	0.929
5.11083	0.929
5.15195	0.931
5.19307	0.931
5.23419	0.931
5.2753	0.929
5.31642	0.928
5.35754	0.926
5.39866	0.921
5.43977	0.912
5.48089	0.895
5.52201	0.871
5.56313	0.809
5.60425	0.741
5.64536	0.681
5.68648	0.631
5.7276	0.571
5.76872	0.46
5.80983	0.308
5.85095	0.205
5.89207	0.148
5.93319	0.296
5.97431	0.477
6.01542	0.563
6.05654	0.595
6.09766	0.631
6.13878	0.571
6.17989	0.565
6.22101	0.703
6.26213	0.76
6.30325	0.767
6.34437	0.756
6.38548	0.772
6.4266	0.815
6.46772	0.83
6.50884	0.83
6.54995	0.83
6.59107	0.83
6.63219	0.82
6.67331	0.797
6.71443	0.777
6.75554	0.714
6.79666	0.551
6.83778	0.344
6.8789	0.303
6.92001	0.383
6.96113	0.433
7.00225	0.417
7.04337	0.407
7.08449	0.476
7.1256	0.443
7.16672	0.565
7.20784	0.565
7.24896	0.438
7.29007	0.402
7.33119	0.513
7.37231	0.613
7.41343	0.597
7.45455	0.539
7.49566	0.462
7.53678	0.594
7.5779	0.703
7.61902	0.75
7.66013	0.744
7.70125	0.743
7.74237	0.724
7.78349	0.693
7.82461	0.619
7.86572	0.484
7.90684	0.383
7.94796	0.378
7.98908	0.532
8.03019	0.662
8.07131	0.717
8.11243	0.738
8.15355	0.746
8.19467	0.751
8.23578	0.756
8.2769	0.777
8.31802	0.796
8.35914	0.804
8.40025	0.813
8.44137	0.818
8.48249	0.816
8.52361	0.811
8.56473	0.794
8.60584	0.768
8.64696	0.678
8.68808	0.573
8.7292	0.546
8.77031	0.669
8.81143	0.753
8.85255	0.78
8.89367	0.794
8.93479	0.797
8.9759	0.801
9.01702	0.815
9.05814	0.815
9.09926	0.801
9.14037	0.772
9.18149	0.741
9.22261	0.688
9.26373	0.599
9.30485	0.501
9.34596	0.422
9.38708	0.407
9.4282	0.479
9.46932	0.585
9.51043	0.648
9.55155	0.703
9.59267	0.734
9.63379	0.75
9.67491	0.76
9.71602	0.767
9.75714	0.772
9.79826	0.775
9.83938	0.78
9.88049	0.797
9.92161	0.801
9.96273	0.806
10.0038	0.809
10.045	0.815
10.0861	0.815
10.1272	0.816
10.1683	0.82
10.2094	0.82
10.2506	0.82
10.2917	0.821
10.3328	0.821
10.3739	0.823
10.415	0.825
10.4561	0.827
10.4973	0.825
10.5384	0.825
10.5795	0.823
10.6206	0.823
10.6617	0.823
10.7028	0.823
10.744	0.823
10.7851	0.823
10.8262	0.823
10.8673	0.823
10.9084	0.823
10.9496	0.823
10.9907	0.823
11.0318	0.82
11.0729	0.82
11.114	0.816
11.1551	0.809
11.1963	0.804
11.2374	0.799
11.2785	0.794
11.3196	0.787
11.3607	0.782
11.4019	0.768
11.443	0.755
11.4841	0.739
11.5252	0.726
11.5663	0.707
11.6074	0.696
11.6486	0.676
11.6897	0.652
11.7308	0.633
11.7719	0.613
11.813	0.597
11.8541	0.595
11.8953	0.597
11.9364	0.602
11.9775	0.623
12.0186	0.642
12.0597	0.664
12.1009	0.686
12.142	0.696
12.1831	0.7
12.2242	0.698
12.2653	0.671
12.3064	0.625
12.3476	0.582
12.3887	0.571
12.4298	0.583
12.4709	0.613
12.512	0.631
12.5531	0.638
12.5943	0.633
12.6354	0.613
12.6765	0.595
12.7176	0.595
12.7587	0.623
12.7999	0.643
12.841	0.662
12.8821	0.681
12.9232	0.698
12.9643	0.708
13.0054	0.719
13.0466	0.724
13.0877	0.726
13.1288	0.726
13.1699	0.724
13.211	0.715
13.2522	0.703
13.2933	0.696
13.3344	0.69
13.3755	0.686
13.4166	0.703
13.4577	0.714
13.4989	0.715
13.54	0.71
13.5811	0.705
13.6222	0.696
13.6633	0.684
13.7044	0.672
13.7456	0.655
13.7867	0.648
13.8278	0.647
13.8689	0.647
13.91	0.643
13.9512	0.633
13.9923	0.619
14.0334	0.582
14.0745	0.551
14.1156	0.547
14.1567	0.585
14.1979	0.614
14.239	0.621
14.2801	0.619
14.3212	0.611
14.3623	0.601
14.4034	0.595
14.4446	0.589
14.4857	0.585
14.5268	0.582
14.5679	0.578
14.609	0.577
14.6502	0.57
14.6913	0.558
14.7324	0.549
14.7735	0.542
14.8146	0.535
14.8557	0.527
14.8969	0.518
14.938	0.508
14.9791	0.501
15.0202	0.494
15.0613	0.486
15.1025	0.476
15.1436	0.467
15.1847	0.458
15.2258	0.448
15.2669	0.441
15.308	0.434
15.3492	0.428
15.3903	0.416
15.4314	0.407
15.4725	0.4
15.5136	0.388
15.5547	0.378
15.5959	0.368
15.637	0.361
15.6781	0.356
15.7192	0.352
15.7603	0.351
15.8015	0.347
15.8426	0.347
15.8837	0.345
