Infrared Spectrum: Beta-Caryophyllene
Formula: C15 H24
CAS: 87-44-5
State: LIQUID (NEAT)
Class: COBLENTZ III
Instrument: BECKMAN IR-4 (HYBRID PRISM-GRATING)
Sampling: TRANSMISSION
Resolution: 2
Origin: UNIVERSITY OF FLORIDA
1/CM	TRANSMITTANCE
668	0.6621
677	0.6808
686	0.6995
695	0.712
704	0.7175
713	0.7313
722	0.7441
731	0.7443
740	0.733
749	0.7432
758	0.7291
767	0.7152
776	0.7211
785	0.6514
794	0.7204
803	0.7431
812	0.6397
821	0.6589
830	0.7352
839	0.6677
848	0.7291
857	0.6337
866	0.5994
875	0.2316
884	0.1233
893	0.4213
902	0.6559
911	0.7188
920	0.7286
929	0.7293
938	0.7553
947	0.7546
956	0.756
965	0.723
974	0.7078
983	0.6309
992	0.6517
1001	0.6921
1010	0.7241
1019	0.6778
1028	0.7261
1037	0.7392
1046	0.7807
1055	0.7496
1064	0.7624
1073	0.7765
1082	0.7802
1091	0.7618
1100	0.6981
1109	0.7061
1118	0.7736
1127	0.7659
1136	0.7602
1145	0.7593
1154	0.7785
1163	0.752
1172	0.7203
1181	0.5515
1190	0.6777
1199	0.752
1208	0.756
1217	0.6985
1226	0.6751
1235	0.727
1244	0.7479
1253	0.6787
1262	0.6989
1271	0.6006
1280	0.5779
1289	0.7177
1298	0.69
1307	0.7433
1316	0.7471
1325	0.7289
1334	0.7279
1343	0.7387
1352	0.7032
1361	0.5869
1370	0.3496
1379	0.4903
1388	0.4862
1397	0.6735
1406	0.6985
1415	0.6626
1424	0.5747
1433	0.4035
1442	0.2555
1451	0.195
1460	0.2518
1469	0.4386
1478	0.6713
1487	0.7366
1496	0.7627
1505	0.7758
1514	0.779
1523	0.7874
1532	0.7864
1541	0.7852
1550	0.7847
1559	0.7904
1568	0.7874
1577	0.7805
1586	0.7801
1595	0.7773
1604	0.762
1613	0.716
1622	0.5669
1631	0.4851
1640	0.6677
1649	0.7261
1658	0.7506
1667	0.7206
1676	0.739
1685	0.7797
1694	0.7921
1703	0.7876
1712	0.7888
1721	0.7918
1730	0.7984
1739	0.7981
1748	0.7958
1757	0.7918
1766	0.7835
1775	0.7637
1784	0.7664
1793	0.78
1802	0.7922
1811	0.8021
1820	0.8067
1829	0.8079
1838	0.8065
1847	0.806
1856	0.806
1865	0.8065
1874	0.8071
1883	0.8081
1892	0.8084
1901	0.8086
1910	0.8089
1919	0.8091
1928	0.8089
1937	0.8088
1946	0.8088
1955	0.8098
1964	0.8105
1973	0.8105
1982	0.8104
1991	0.81
2000	0.8096
2009	0.8093
2018	0.8089
2027	0.8085
2036	0.8079
2045	0.8077
2054	0.8078
2063	0.8077
2072	0.8073
2081	0.807
2090	0.8063
2099	0.8055
2108	0.8046
2117	0.8038
2126	0.8034
2135	0.803
2144	0.8026
2153	0.8019
2162	0.8014
2171	0.8011
2180	0.8008
2189	0.8006
2198	0.8004
2207	0.8004
2216	0.8004
2225	0.8004
2234	0.8004
2243	0.8007
2252	0.8009
2261	0.8012
2270	0.8014
2279	0.8017
2288	0.8019
2297	0.802
2306	0.802
2315	0.802
2324	0.8019
2333	0.8013
2342	0.8004
2351	0.7995
2360	0.7981
2369	0.7943
2378	0.7909
2387	0.7915
2396	0.7923
2405	0.7925
2414	0.7914
2423	0.7903
2432	0.7908
2441	0.7928
2450	0.7944
2459	0.7952
2468	0.7951
2477	0.7939
2486	0.7925
2495	0.791
2504	0.7897
2513	0.7887
2522	0.7895
2531	0.7907
2540	0.7922
2549	0.7922
2558	0.7916
2567	0.7902
2576	0.7879
2585	0.7844
2594	0.7802
2603	0.7753
2612	0.769
2621	0.7627
2630	0.7592
2639	0.758
2648	0.7573
2657	0.7568
2666	0.7568
2675	0.7576
2684	0.7572
2693	0.7519
2702	0.7432
2711	0.7334
2720	0.7304
2729	0.7314
2738	0.7344
2747	0.7364
2756	0.7377
2765	0.7377
2774	0.7358
2783	0.7286
2792	0.7145
2801	0.7009
2810	0.6783
2819	0.5887
2828	0.4782
2837	0.3686
2846	0.2596
2855	0.1513
2864	0.0991
2873	0.1155
2882	0.1194
2891	0.0767
2900	0.0332
2909	0.013
2918	0.0065
2927	0.0003
2936	0.0001
2945	0.0012
2954	0.0813
2963	0.1898
2972	0.2978
2981	0.405
2990	0.5117
2999	0.6091
3008	0.6479
3017	0.6597
3026	0.6571
3035	0.626
3044	0.5939
3053	0.5667
3062	0.6046
3071	0.6569
3080	0.7088
3089	0.7369
3098	0.7435
3107	0.7479
3116	0.7508
3125	0.7535
3134	0.7557
3143	0.7574
3152	0.7585
3161	0.7595
3170	0.76
3179	0.7604
3188	0.7608
3197	0.7611
3206	0.7612
3215	0.7613
3224	0.7612
3233	0.7612
3242	0.7611
3251	0.7609
3260	0.7608
3269	0.7607
3278	0.7605
3287	0.7602
3296	0.7598
3305	0.7595
3314	0.7592
3323	0.7587
3332	0.758
3341	0.7572
3350	0.7563
3359	0.7555
3368	0.7547
3377	0.7542
3386	0.7539
3395	0.7542
3404	0.7546
3413	0.7554
3422	0.7562
3431	0.757
3440	0.7579
3449	0.7588
3458	0.7597
3467	0.7606
3476	0.7614
3485	0.7623
3494	0.7632
3503	0.7644
3512	0.7656
3521	0.7668
3530	0.768
3539	0.7693
3548	0.7706
3557	0.7717
3566	0.7727
3575	0.7735
3584	0.7743
3593	0.7751
3602	0.7757
3611	0.7764
3620	0.7767
3629	0.7769
3638	0.7771
3647	0.7773
3656	0.7776
3665	0.7778
3674	0.7782
3683	0.7786
3692	0.7789
3701	0.7792
3710	0.7793
3719	0.7792
3728	0.7792
3737	0.7792
3746	0.7791
3755	0.7786
3764	0.7776
3773	0.7764
3782	0.7752
3791	0.7735
3800	0.7724
3809	0.7724
3818	0.7726
3827	0.7732
3836	0.7739
3845	0.7748
3854	0.7747
3863	0.7743
3872	0.7738
3881	0.7727
3890	0.7715
3899	0.7702
3908	0.7688
3917	0.7673
3926	0.7661
3935	0.7649
3944	0.7639
3953	0.7636
3962	0.7634
3971	0.7632
3980	0.763
3989	0.7627
3998	0.7625
