Infrared Spectrum: CARBAMIC ACID, DIMETHYL-, 5-METHYL-2-PHENYL-PYRAZOL-3-YL ESTER
Formula: C13 H15 N3 O2
CAS: 87-47-8
State: SOLUTION (10% CCl4 FOR 2-7.5, 10% CS2 FOR 7.5-15.9 MICRON)
Boiling point: 166 C AT 5 mmHg
Class: COBLENTZ III
Instrument: BAIRD (PRISM)
Instrument parameters: NaCl PRISM
Sampling: TRANSMISSION
Path length: 0.012 CM, 0.012 CM
Resolution: 2
Origin: DOW CHEMICAL COMPANY
MICROMETERS	TRANSMITTANCE
2.02	0.902
2.05902	0.901
2.09805	0.893
2.13707	0.89
2.17609	0.89
2.21512	0.883
2.25414	0.874
2.29316	0.874
2.33219	0.882
2.37121	0.889
2.41023	0.888
2.44926	0.885
2.48828	0.898
2.5273	0.898
2.56633	0.898
2.60535	0.909
2.64437	0.905
2.68339	0.899
2.72242	0.9
2.76144	0.9
2.80046	0.899
2.83949	0.884
2.87851	0.879
2.91753	0.886
2.95656	0.891
2.99558	0.893
3.0346	0.891
3.07363	0.888
3.11265	0.872
3.15167	0.852
3.1907	0.841
3.22972	0.776
3.26874	0.711
3.30777	0.717
3.34679	0.722
3.38581	0.512
3.42484	0.525
3.46386	0.681
3.50288	0.77
3.54191	0.805
3.58093	0.853
3.61995	0.871
3.65898	0.872
3.698	0.873
3.73702	0.89
3.77604	0.882
3.81507	0.882
3.85409	0.874
3.89311	0.891
3.93214	0.888
3.97116	0.891
4.01018	0.899
4.04921	0.9
4.08823	0.899
4.12725	0.893
4.16628	0.88
4.2053	0.875
4.24432	0.885
4.28335	0.899
4.32237	0.884
4.36139	0.869
4.40042	0.885
4.43944	0.899
4.47846	0.899
4.51749	0.9
4.55651	0.902
4.59553	0.906
4.63456	0.901
4.67358	0.898
4.7126	0.899
4.75163	0.902
4.79065	0.906
4.82967	0.907
4.8687	0.904
4.90772	0.899
4.94674	0.891
4.98576	0.877
5.02479	0.863
5.06381	0.868
5.10283	0.858
5.14186	0.861
5.18088	0.888
5.2199	0.894
5.25893	0.88
5.29795	0.864
5.33697	0.852
5.376	0.852
5.41502	0.837
5.45404	0.82
5.49307	0.807
5.53209	0.777
5.57111	0.729
5.61014	0.619
5.64916	0.35
5.68818	0.023
5.72721	0.034
5.76623	0.098
5.80525	0.353
5.84428	0.437
5.8833	0.62
5.92232	0.738
5.96135	0.765
6.00037	0.798
6.03939	0.804
6.07841	0.805
6.11744	0.74
6.15646	0.679
6.19548	0.568
6.23451	0.259
6.27353	0.191
6.31255	0.406
6.35158	0.248
6.3906	0.101
6.42962	0.154
6.46865	0.223
6.50767	0.319
6.54669	0.339
6.58572	0.249
6.62474	0.097
6.66376	0.077
6.70279	0.196
6.74181	0.277
6.78083	0.218
6.81986	0.214
6.85888	0.19
6.8979	0.126
6.93693	0.098
6.97595	0.208
7.01497	0.4
7.054	0.389
7.09302	0.321
7.13204	0.27
7.17107	0.13
7.21009	0.024
7.24911	0.015
7.28813	0.04
7.32716	0.104
7.36618	0.337
7.4052	0.598
7.44423	0.656
7.48325	0.678
7.52227	0.649
7.5613	0.546
7.60032	0.542
7.63934	0.689
7.67837	0.744
7.71739	0.727
7.75641	0.724
7.79544	0.662
7.83446	0.541
7.87348	0.396
7.91251	0.307
7.95153	0.529
7.99055	0.66
8.02958	0.735
8.0686	0.765
8.10762	0.786
8.14665	0.792
8.18567	0.792
8.22469	0.777
8.26372	0.754
8.30274	0.723
8.34176	0.67
8.38078	0.598
8.41981	0.502
8.45883	0.39
8.49785	0.25
8.53688	0.14
8.5759	0.051
8.61492	0.02
8.65395	0.017
8.69297	0.009
8.73199	0.013
8.77102	0.04
8.81004	0.094
8.84906	0.196
8.88809	0.352
8.92711	0.481
8.96613	0.565
9.00516	0.605
9.04418	0.652
9.0832	0.691
9.12223	0.721
9.16125	0.745
9.20027	0.772
9.2393	0.771
9.27832	0.743
9.31734	0.656
9.35637	0.573
9.39539	0.563
9.43441	0.578
9.47344	0.603
9.51246	0.529
9.55148	0.391
9.5905	0.401
9.62953	0.624
9.66855	0.659
9.70757	0.542
9.7466	0.346
9.78562	0.323
9.82464	0.64
9.86367	0.703
9.90269	0.636
9.94171	0.673
9.98074	0.728
10.0198	0.665
10.0588	0.563
10.0978	0.531
10.1368	0.606
10.1759	0.711
10.2149	0.748
10.2539	0.73
10.2929	0.708
10.3319	0.761
10.371	0.837
10.41	0.873
10.449	0.893
10.488	0.902
10.5271	0.922
10.5661	0.933
10.6051	0.937
10.6441	0.941
10.6832	0.941
10.7222	0.941
10.7612	0.939
10.8002	0.931
10.8392	0.923
10.8783	0.909
10.9173	0.885
10.9563	0.839
10.9953	0.754
11.0344	0.668
11.0734	0.67
11.1124	0.808
11.1514	0.867
11.1905	0.888
11.2295	0.889
11.2685	0.873
11.3075	0.862
11.3465	0.852
11.3856	0.845
11.4246	0.834
11.4636	0.825
11.5026	0.81
11.5417	0.802
11.5807	0.782
11.6197	0.771
11.6587	0.759
11.6978	0.745
11.7368	0.724
11.7758	0.689
11.8148	0.578
11.8539	0.423
11.8929	0.346
11.9319	0.481
11.9709	0.652
12.0099	0.742
12.049	0.802
12.088	0.823
12.127	0.836
12.166	0.841
12.2051	0.83
12.2441	0.81
12.2831	0.803
12.3221	0.81
12.3612	0.832
12.4002	0.845
12.4392	0.852
12.4782	0.851
12.5172	0.834
12.5563	0.805
12.5953	0.77
12.6343	0.719
12.6733	0.642
12.7124	0.551
12.7514	0.475
12.7904	0.406
12.8294	0.38
12.8685	0.377
12.9075	0.38
12.9465	0.35
12.9855	0.31
13.0245	0.308
13.0636	0.32
13.1026	0.324
13.1416	0.251
13.1806	0.162
13.2197	0.072
13.2587	0.057
13.2977	0.114
13.3367	0.201
13.3758	0.272
13.4148	0.289
13.4538	0.309
13.4928	0.414
13.5318	0.55
13.5709	0.648
13.6099	0.712
13.6489	0.754
13.6879	0.776
13.727	0.789
13.766	0.794
13.805	0.798
13.844	0.799
13.8831	0.796
13.9221	0.799
13.9611	0.797
14.0001	0.789
14.0392	0.778
14.0782	0.767
14.1172	0.749
14.1562	0.706
14.1952	0.669
14.2343	0.61
14.2733	0.542
14.3123	0.475
14.3513	0.367
14.3904	0.269
14.4294	0.189
14.4684	0.174
14.5074	0.218
14.5465	0.339
14.5855	0.447
14.6245	0.529
14.6635	0.571
14.7025	0.599
14.7416	0.603
14.7806	0.598
14.8196	0.565
14.8586	0.544
14.8977	0.517
14.9367	0.498
14.9757	0.488
15.0147	0.487
15.0538	0.486
15.0928	0.487
15.1318	0.488
15.1708	0.486
15.2098	0.481
15.2489	0.48
15.2879	0.481
15.3269	0.488
15.3659	0.5
15.405	0.517
15.444	0.527
15.483	0.53
15.522	0.53
15.5611	0.531
15.6001	0.53
15.6391	0.529
15.6781	0.527
15.7172	0.525
15.7562	0.525
15.7952	0.519
15.8342	0.517
15.8732	0.518
15.9123	0.523
