Infrared Spectrum: 6-Chloropurine
Formula: C 5 H 3 Cl N 4
CAS: 87-42-3
State: gas
Instrument: HP-GC/MS/IRD
Origin: NIST Mass Spectrometry Data Center
1/CM	ABSORBANCE
550	0.0026376
562	0.0022152
574	0.0008136
586	0.0006876
598	0.0003636
610	0.0001404
622	0.0001752
634	0.0005832
646	0.0006396
658	0.0005496
670	0.0005316
682	0.0003012
694	7.2e-05
706	9.96e-05
718	0.0001272
730	0.0001212
742	4.32e-05
754	2.88e-05
766	0.0001596
778	0.0002472
790	0.000498
802	0.0004932
814	0.0004212
826	0.00087
838	0.0020388
850	0.0024708
862	0.0014856
874	0.0007548
886	0.0003912
898	0.0005364
910	0.0016752
922	0.0013524
934	0.0004632
946	0.000798
958	0.0015372
970	0.0022668
982	0.0053412
994	0.007452
1006	0.003522
1018	0.000894
1030	0.0005472
1042	0.0010056
1054	0.0013332
1066	0.0008976
1078	0.0003372
1090	0.0003084
1102	0.0002604
1114	0.000162
1126	0.0003132
1138	0.000558
1150	0.0005784
1162	0.0004104
1174	0.0004272
1186	0.0005412
1198	0.0012876
1210	0.00288
1222	0.0043188
1234	0.0052716
1246	0.0033576
1258	0.0017808
1270	0.0017952
1282	0.0011472
1294	0.0005004
1306	0.0013236
1318	0.0048804
1330	0.0054432
1342	0.0021048
1354	0.0014724
1366	0.0028908
1378	0.005514
1390	0.0046308
1402	0.0019356
1414	0.001842
1426	0.0027144
1438	0.0031524
1450	0.0019212
1462	0.0006972
1474	0.0010392
1486	0.0014472
1498	0.0010452
1510	0.0007392
1522	0.001074
1534	0.0027588
1546	0.0065604
1558	0.011418
1570	0.010476
1582	0.006138
1594	0.0056352
1606	0.0044676
1618	0.002202
1630	0.000684
1642	0.0003636
1654	0.0003372
1666	0.0002184
1678	9.24e-05
1690	0.000102
1702	0.0001608
1714	0.0004476
1726	0.0007812
1738	0.0005124
1750	0.000168
1762	0.0001536
1774	8.52e-05
1786	8.28e-05
1798	6.36e-05
1810	7.68e-05
1822	9.12e-05
1834	6.24e-05
1846	4.08e-05
1858	8.4e-05
1870	0.0001776
1882	0.0002892
1894	0.0002412
1906	0.0001092
1918	4.92e-05
1930	6.12e-05
1942	2.28e-05
1954	2.76e-05
1966	7.56e-05
1978	5.64e-05
1990	3.48e-05
2002	2.04e-05
2014	1.44e-05
2026	3.12e-05
2038	2.4e-05
2050	2.16e-05
2062	2.04e-05
2074	1.56e-05
2086	6e-06
2098	9.6e-06
2110	3.72e-05
2122	3e-05
2134	3.84e-05
2146	3.96e-05
2158	4.44e-05
2170	2.88e-05
2182	4.2e-05
2194	2.16e-05
2206	2.64e-05
2218	3e-05
2230	3.84e-05
2242	5.4e-05
2254	4.2e-05
2266	4.32e-05
2278	5.4e-05
2290	5.64e-05
2302	7.56e-05
2314	8.64e-05
2326	8.64e-05
2338	6.6e-05
2350	0.0001152
2362	0.0001548
2374	0.0001356
2386	0.000114
2398	9.6e-05
2410	0.0001452
2422	0.0002208
2434	0.0002352
2446	0.0002004
2458	0.0001548
2470	0.0001368
2482	0.000114
2494	9e-05
2506	6.24e-05
2518	0.0001008
2530	0.0001176
2542	0.0001008
2554	6.96e-05
2566	8.04e-05
2578	8.28e-05
2590	9.48e-05
2602	0.000108
2614	9.96e-05
2626	0.0001236
2638	0.0001224
2650	0.0001164
2662	0.0001212
2674	9.96e-05
2686	5.28e-05
2698	6.72e-05
2710	6e-05
2722	7.8e-05
2734	8.4e-05
2746	8.4e-05
2758	7.08e-05
2770	9e-05
2782	6e-05
2794	6.84e-05
2806	5.52e-05
2818	3.96e-05
2830	7.56e-05
2842	0.0001152
2854	7.44e-05
2866	9e-05
2878	3e-05
2890	6.72e-05
2902	4.56e-05
2914	4.8e-06
2926	6.24e-05
2938	7.92e-05
2950	0.0001068
2962	0.0001296
2974	0.0001428
2986	9.84e-05
2998	0.0001248
3010	7.68e-05
3022	0.0001164
3034	9.72e-05
3046	0.0001824
3058	0.0003684
3070	0.0008712
3082	0.0007884
3094	0.0002544
3106	4.8e-05
3118	9.48e-05
3130	0.0001332
3142	7.32e-05
3154	0.0001104
3166	9.24e-05
3178	5.28e-05
3190	1.56e-05
3202	3.36e-05
3214	3.12e-05
3226	0.0001236
3238	4.2e-05
3250	0.0001008
3262	0.0001044
3274	8.04e-05
3286	0.0001152
3298	0.0001104
3310	6.6e-05
3322	3.96e-05
3334	4.08e-05
3346	6.6e-05
3358	0.0001368
3370	0.0001404
3382	5.64e-05
3394	0.0001164
3406	0.000108
3418	0.0001428
3430	9e-05
3442	0.0001824
3454	0.0003924
3466	0.000882
3478	0.0024
3490	0.0054312
3502	0.0061116
3514	0.0019572
3526	0.000216
3538	0.0002064
3550	0.0001356
3562	0.0001548
3574	0.0001308
3586	7.92e-05
3598	9.84e-05
3610	9.24e-05
3622	6.84e-05
3634	4.56e-05
3646	1.2e-05
3658	0.000138
3670	0.000108
3682	9.6e-05
3694	9.84e-05
3706	9.36e-05
3718	4.56e-05
3730	6.84e-05
3742	0.000138
3754	0.000132
3766	6.48e-05
3778	0.0001464
3790	0.0001284
3802	0.0001224
3814	0.0001236
3826	9.84e-05
3838	0.0001116
