Infrared Spectrum: Mucochloric acid
Formula: C4 H2 Cl2 O3
CAS: 87-56-9
State: gas
Origin: EPA-IR VAPOR PHASE LIBRARY
1/CM	ABSORBANCE
549.8	0.002014
559.445	0.001784
569.09	0.001864
578.734	0.002174
588.379	0.002464
598.024	0.002834
607.669	0.001914
617.313	0.006224
626.958	0.003254
636.603	0.005714
646.248	0.009044
655.893	0.007764
665.537	0.016104
675.182	0.009194
684.827	0.010524
694.472	0.009294
704.116	0.009074
713.761	0.011274
723.406	0.020494
733.051	0.022664
742.695	0.023754
752.34	0.013864
761.985	0.009284
771.63	0.007724
781.275	0.005764
790.919	0.004144
800.564	0.002964
810.209	0.002854
819.854	0.002674
829.498	0.002314
839.143	0.002154
848.788	0.002124
858.433	0.002634
868.078	0.003804
877.722	0.005014
887.367	0.008514
897.012	0.011564
906.657	0.009684
916.301	0.005414
925.946	0.003604
935.591	0.003294
945.236	0.003454
954.88	0.005494
964.525	0.011324
974.17	0.025484
983.815	0.042104
993.46	0.038324
1003.1	0.018754
1012.75	0.008844
1022.39	0.005374
1032.04	0.004664
1041.68	0.006184
1051.33	0.010074
1060.97	0.016184
1070.62	0.018774
1080.26	0.019144
1089.91	0.010254
1099.55	0.008424
1109.2	0.011284
1118.84	0.016764
1128.49	0.020704
1138.13	0.017614
1147.78	0.013264
1157.42	0.009544
1167.07	0.006804
1176.71	0.005614
1186.36	0.006674
1196	0.010954
1205.64	0.015394
1215.29	0.014794
1224.93	0.010444
1234.58	0.006274
1244.22	0.005074
1253.87	0.003244
1263.51	0.002494
1273.16	0.002434
1282.8	0.002614
1292.45	0.003724
1302.09	0.005644
1311.74	0.007344
1321.38	0.006684
1331.03	0.004814
1340.67	0.004074
1350.32	0.003534
1359.96	0.003564
1369.61	0.004544
1379.25	0.007074
1388.9	0.007674
1398.54	0.008494
1408.18	0.007174
1417.83	0.005654
1427.47	0.003524
1437.12	0.002064
1446.76	0.0012749
1456.41	0.001214
1466.05	0.0007168
1475.7	0.000491
1485.34	0.000286
1494.99	0.000226
1504.63	7.6e-05
1514.28	1.4e-05
1523.92	2.1e-05
1533.57	0.000155
1543.21	0.000623
1552.86	0.001461
1562.5	0.003534
1572.15	0.006394
1581.79	0.007224
1591.44	0.005554
1601.08	0.002654
1610.73	0.002934
1620.37	0.005224
1630.01	0.010354
1639.66	0.014414
1649.3	0.012514
1658.95	0.008614
1668.59	0.011914
1678.24	0.037304
1687.88	0.069654
1697.53	0.069544
1707.17	0.030944
1716.82	0.015144
1726.46	0.014084
1736.11	0.010844
1745.75	0.006284
1755.4	0.005354
1765.04	0.004864
1774.69	0.005934
1784.33	0.008274
1793.98	0.011234
1803.62	0.014734
1813.27	0.022524
1822.91	0.048244
1832.55	0.059354
1842.2	0.032924
1851.84	0.008934
1861.49	0.004824
1871.13	0.002834
1880.78	0.001904
1890.42	0.0016273
1900.07	0.0014944
1909.71	0.0014976
1919.36	0.0016051
1929	0.0016292
1938.65	0.0017526
1948.29	0.002034
1957.94	0.002204
1967.58	0.002294
1977.23	0.002144
1986.87	0.001814
1996.52	0.0014389
2006.16	0.0014018
2015.81	0.0013035
2025.45	0.0012773
2035.1	0.0013414
2044.74	0.0013727
2054.38	0.0014962
2064.03	0.0017454
2073.67	0.002194
2083.32	0.002854
2092.96	0.004164
2102.61	0.005964
2112.25	0.008014
2121.9	0.009034
2131.54	0.007934
2141.19	0.005494
2150.83	0.005784
2160.48	0.008564
2170.12	0.013764
2179.77	0.022184
2189.41	0.032964
2199.06	0.042624
2208.7	0.045244
2218.35	0.036174
2227.99	0.019514
2237.64	0.005794
2247.28	0.003704
2256.92	0.004344
2266.57	0.006134
2276.21	0.010194
2285.86	0.018654
2295.5	0.033744
2305.15	0.052914
2314.79	0.069054
2324.44	0.080074
2334.08	0.075764
2343.73	0.076064
2353.37	0.084494
2363.02	0.104724
2372.66	0.080804
2382.31	0.034824
2391.95	0.005004
2401.6	0.002084
2411.24	0.0017729
2420.89	0.001583
2430.53	0.0015986
2440.18	0.0014432
2449.82	0.0013218
2459.47	0.0014099
2469.11	0.0012852
2478.75	0.0012386
2488.4	0.0013925
2498.04	0.0012154
2507.69	0.0013028
2517.33	0.001253
2526.98	0.0011379
2536.62	0.001154
2546.27	0.0012877
2555.91	0.0011648
2565.56	0.0011704
2575.2	0.0013021
2584.85	0.0012907
2594.49	0.0013906
2604.14	0.0014349
2613.78	0.0011999
2623.43	0.001884
2633.07	0.0014465
2642.72	0.0016282
2652.36	0.003074
2662.01	0.001804
2671.65	0.002104
2681.29	0.002174
2690.94	0.002324
2700.58	0.003844
2710.23	0.002634
2719.87	0.003124
2729.52	0.005214
2739.16	0.003464
2748.81	0.004394
2758.45	0.002834
2768.1	0.002434
2777.74	0.004204
2787.39	0.002704
2797.03	0.007154
2806.68	0.004144
2816.32	0.005304
2825.97	0.006024
2835.61	0.007394
2845.26	0.011614
2854.9	0.010894
2864.55	0.012384
2874.19	0.006794
2883.84	0.005164
2893.48	0.004724
2903.12	0.005044
2912.77	0.004034
2922.41	0.004704
2932.06	0.004284
2941.7	0.005564
2951.35	0.003614
2960.99	0.006004
2970.64	0.002724
2980.28	0.007634
2989.93	0.002084
2999.57	0.004294
3009.22	0.001844
3018.86	0.0017274
3028.51	0.004104
3038.15	0.0014398
3047.8	0.001934
3057.44	0.002684
3067.09	0.001834
3076.73	0.001974
3086.38	0.002234
3096.02	0.0017125
3105.67	0.0015395
3115.31	0.0011405
3124.95	0.0014005
3134.6	0.0012429
3144.24	0.0013772
3153.89	0.0012877
3163.53	0.0013401
3173.18	0.0010242
3182.82	0.001254
3192.47	0.0011467
3202.11	0.0012695
3211.76	0.0012468
3221.4	0.0010382
3231.05	0.0011542
3240.69	0.0012988
3250.34	0.0010535
3259.98	0.0010825
3269.63	0.0012064
3279.27	0.0010292
3288.92	0.0010281
3298.56	0.0012186
3308.21	0.0010595
3317.85	0.0011187
3327.49	0.0011647
3337.14	0.0013299
3346.78	0.0017273
3356.43	0.002314
3366.07	0.002424
3375.72	0.002244
3385.36	0.0016658
3395.01	0.0016572
3404.65	0.0014094
3414.3	0.0013458
3423.94	0.0013697
3433.59	0.0012786
3443.23	0.0011431
3452.88	0.0009387
3462.52	0.0007629
3472.17	0.0008977
3481.81	0.0008882
3491.46	0.0009287
3501.1	0.00104
3510.75	0.0010259
3520.39	0.0009416
3530.04	0.0008878
3539.68	0.0012244
3549.32	0.0015214
3558.97	0.0017282
3568.61	0.002654
3578.26	0.002564
3587.9	0.002464
3597.55	0.002924
3607.19	0.003594
3616.84	0.005424
3626.48	0.006004
3636.13	0.006394
3645.77	0.006924
3655.42	0.005824
3665.06	0.002784
3674.71	0.002094
3684.35	0.002244
3694	0.002794
3703.64	0.002724
3713.29	0.001904
3722.93	0.002604
3732.58	0.003644
3742.22	0.003264
3751.86	0.001974
3761.51	0.00080406
3771.15	0.000665
3780.8	0.00081153
3790.44	0.000906
3800.09	0.00085633
3809.73	0.00087852
3819.38	0.00079566
3829.02	0.00082064
3838.67	0.0007621
3848.31	0.0007463
3857.96	0.000667
3867.6	0.0010033
3877.25	0.000606
3886.89	0.00085883
3896.54	0.00081188
3906.18	0.0009323
3915.83	0.000943
3925.47	0.00083166
3935.12	0.000602
3944.76	0.0010989
3954.41	0.0008923
3964.05	0.0007303
3973.69	0.00083551
3983.34	0.0007141
3992.98	0.000516
