Infrared Spectrum: 3-Indoleacetic acid
Formula: C 10 H 9 N O 2
CAS: 87-51-4
State: gas
Instrument: HP-GC/MS/IRD
Origin: NIST Mass Spectrometry Data Center
1/CM	ABSORBANCE
550	0.0015687
562	0.0019872
574	0.0049896
586	0.0120555
598	0.0095472
610	0.0046062
622	0.0047007
634	0.0041337
646	0.0033183
658	0.002835
670	0.0043821
682	0.003699
694	0.0021141
706	0.0015174
718	0.0035343
730	0.0128817
742	0.0132246
754	0.0045117
766	0.0023031
778	0.0029052
790	0.003888
802	0.0044307
814	0.0039717
826	0.0030726
838	0.0020088
850	0.0009855
862	0.0004617
874	0.0005481
886	0.0010071
898	0.0012798
910	0.0011178
922	0.0009774
934	0.0007938
946	0.0004023
958	0.0001998
970	5.94e-05
982	2.7e-05
994	0.0001215
1006	0.0012312
1018	0.0012177
1030	0.0003078
1042	0.0007668
1054	0.0017901
1066	0.0032859
1078	0.0076572
1090	0.0129897
1102	0.0181278
1114	0.024813
1126	0.0166806
1138	0.0101925
1150	0.0068769
1162	0.0047385
1174	0.003537
1186	0.0034317
1198	0.0040392
1210	0.0046845
1222	0.0051948
1234	0.0035505
1246	0.0031239
1258	0.0028539
1270	0.0021438
1282	0.0022032
1294	0.0027675
1306	0.0033993
1318	0.0042309
1330	0.0054594
1342	0.0062019
1354	0.0054378
1366	0.0046413
1378	0.0040311
1390	0.0032103
1402	0.0032373
1414	0.0039393
1426	0.0025596
1438	0.0021465
1450	0.0043551
1462	0.0042903
1474	0.0011097
1486	0.0006696
1498	0.0004023
1510	2.43e-05
1522	7.56e-05
1534	0.0002106
1546	0.0005778
1558	0.0012987
1570	0.0015795
1582	0.0010935
1594	0.0007452
1606	0.0007884
1618	0.0010746
1630	0.0006804
1642	0.0003672
1654	0.0005238
1666	0.0004536
1678	0.0003753
1690	0.0005103
1702	0.0008775
1714	0.0015417
1726	0.0028269
1738	0.0054486
1750	0.0101385
1762	0.016254
1774	0.0251505
1786	0.0252747
1798	0.0164322
1810	0.0082647
1822	0.0032859
1834	0.0014958
1846	0.0008181
1858	0.0005508
1870	0.000594
1882	0.0005319
1894	0.0002646
1906	0.0003969
1918	0.0004401
1930	0.0001647
1942	8.91e-05
1954	7.56e-05
1966	7.83e-05
1978	8.91e-05
1990	0.0001215
2002	7.02e-05
2014	7.02e-05
2026	2.97e-05
2038	3.51e-05
2050	2.43e-05
2062	0
2074	2.7e-06
2086	2.43e-05
2098	1.08e-05
2110	2.16e-05
2122	2.43e-05
2134	5.4e-05
2146	5.67e-05
2158	8.64e-05
2170	0.0001269
2182	0.0001026
2194	8.64e-05
2206	0.0001188
2218	0.0001188
2230	0.0001404
2242	0.000135
2254	0.0001674
2266	0.0002214
2278	0.000378
2290	0.0007668
2302	0.0015174
2314	0.0024057
2326	0.0030051
2338	0.0027378
2350	0.002295
2362	0.0039096
2374	0.0029025
2386	0.0007506
2398	0.0001701
2410	0.0001242
2422	9.18e-05
2434	9.72e-05
2446	0.0001242
2458	0.0001836
2470	0.0002376
2482	0.000216
2494	0.0002484
2506	0.0002025
2518	8.64e-05
2530	7.56e-05
2542	8.64e-05
2554	7.02e-05
2566	8.37e-05
2578	9.72e-05
2590	5.4e-05
2602	7.83e-05
2614	0.0001053
2626	9.18e-05
2638	0.0001107
2650	0.0001215
2662	0.0001323
2674	9.45e-05
2686	8.64e-05
2698	9.99e-05
2710	0.0001188
2722	6.21e-05
2734	5.13e-05
2746	3.78e-05
2758	1.89e-05
2770	2.16e-05
2782	4.32e-05
2794	6.48e-05
2806	5.4e-05
2818	0.0001836
2830	0.000189
2842	0.0002781
2854	0.0002646
2866	0.0003024
2878	0.0003537
2890	0.0005238
2902	0.0008154
2914	0.0012636
2926	0.0016281
2938	0.0016983
2950	0.0012204
2962	0.0009072
2974	0.0008154
2986	0.000702
2998	0.000648
3010	0.000864
3022	0.0013986
3034	0.0019629
3046	0.0029106
3058	0.0041148
3070	0.0053622
3082	0.0033669
3094	0.0019656
3106	0.0007425
3118	0.000378
3130	0.0002268
3142	0.000162
3154	0.0001998
3166	0.0001755
3178	0.0001539
3190	8.91e-05
3202	0.0001296
3214	0.0001134
3226	7.02e-05
3238	7.02e-05
3250	6.75e-05
3262	6.21e-05
3274	8.1e-05
3286	6.75e-05
3298	1.89e-05
3310	6.75e-05
3322	7.02e-05
3334	6.75e-05
3346	3.24e-05
3358	1.35e-05
3370	9.45e-05
3382	9.45e-05
3394	7.29e-05
3406	0.0001296
3418	0.0001755
3430	0.0002187
3442	0.0003105
3454	0.0004806
3466	0.0007992
3478	0.0014499
3490	0.0031779
3502	0.0062289
3514	0.0085266
3526	0.0056673
3538	0.0024705
3550	0.0022437
3562	0.0044847
3574	0.0118071
3586	0.0060075
3598	0.0015606
3610	0.0007182
3622	0.0004158
3634	0.0004077
3646	0.0002889
3658	0.0001998
3670	0.0002079
3682	0.000216
3694	0.0002295
3706	0.0001863
3718	0.000135
3730	0.0002295
3742	0.0001782
3754	0.000189
3766	0.0001863
3778	0.0002133
3790	0.0001782
3802	0.0001134
3814	0.0001296
3826	0.0002187
3838	0.0001809
