Infrared Spectrum: Pyrogallol
Formula: C 6 H 6 O 3
CAS: 87-66-1
State: gas
Instrument: HP-GC/MS/IRD
Origin: NIST Mass Spectrometry Data Center
1/CM	ABSORBANCE
550	0.0006468
562	0.0006061
574	0.0007667
586	0.0006138
598	0.0003014
610	0.000198
622	0.0001023
634	0.0001177
646	0.0001353
658	0.0001892
670	0.0004103
682	0.0010428
694	0.0025465
706	0.0042075
718	0.0021197
730	0.0012628
742	0.0009944
754	0.0017545
766	0.0026598
778	0.0015136
790	0.0005357
802	0.0002871
814	0.0004037
826	0.0007315
838	0.0008536
850	0.0005676
862	0.0001463
874	0.0001089
886	7.7e-05
898	1.65e-05
910	0.0001012
922	0.0001936
934	0.0003091
946	0.0004477
958	0.0007667
970	0.0022902
982	0.006204
994	0.0080751
1006	0.0051942
1018	0.0020713
1030	0.0012694
1042	0.0014454
1054	0.0017864
1066	0.0014927
1078	0.0007205
1090	0.00044
1102	0.0004961
1114	0.0006138
1126	0.0010912
1138	0.0020823
1150	0.0041668
1162	0.0065505
1174	0.0074954
1186	0.0073843
1198	0.0064196
1210	0.0043934
1222	0.0047091
1234	0.0078804
1246	0.0096415
1258	0.0093841
1270	0.0091036
1282	0.009174
1294	0.0108548
1306	0.0083523
1318	0.0038654
1330	0.0028446
1342	0.0032373
1354	0.0035882
1366	0.0031119
1378	0.0018458
1390	0.0007447
1402	0.0007425
1414	0.001045
1426	0.0008921
1438	0.0005225
1450	0.000605
1462	0.0012144
1474	0.0026906
1486	0.0043769
1498	0.0056452
1510	0.0071753
1522	0.0064097
1534	0.003102
1546	0.0013959
1558	0.0014553
1570	0.0012529
1582	0.0011462
1594	0.0020086
1606	0.0036718
1618	0.0047806
1630	0.003641
1642	0.0021296
1654	0.0013552
1666	0.0011638
1678	0.0012298
1690	0.0011198
1702	0.0006974
1714	0.0003212
1726	7.92e-05
1738	8.14e-05
1750	8.03e-05
1762	9.13e-05
1774	0.00011
1786	0.0001287
1798	0.0001078
1810	7.48e-05
1822	5.72e-05
1834	3.19e-05
1846	6.05e-05
1858	9.79e-05
1870	0.0002002
1882	0.0001793
1894	7.59e-05
1906	2.09e-05
1918	2.64e-05
1930	3.41e-05
1942	5.06e-05
1954	2.53e-05
1966	4.18e-05
1978	4.84e-05
1990	4.62e-05
2002	2.86e-05
2014	1.98e-05
2026	1.21e-05
2038	3.3e-06
2050	3.52e-05
2062	4.07e-05
2074	4.73e-05
2086	6.49e-05
2098	4.4e-05
2110	2.64e-05
2122	3.19e-05
2134	2.97e-05
2146	3.96e-05
2158	1.87e-05
2170	5.06e-05
2182	7.59e-05
2194	4.07e-05
2206	7.7e-05
2218	0.0001023
2230	8.69e-05
2242	8.25e-05
2254	7.7e-05
2266	8.69e-05
2278	8.58e-05
2290	0.0001078
2302	0.0001265
2314	0.0001584
2326	0.0001639
2338	0.0001551
2350	0.0001375
2362	0.0001573
2374	0.0001419
2386	0.0001034
2398	0.0001133
2410	9.35e-05
2422	0.0001188
2434	0.000121
2446	0.0001276
2458	0.0001133
2470	0.0001276
2482	0.0001199
2494	0.000154
2506	0.0001793
2518	0.0001903
2530	0.0002079
2542	0.0001276
2554	6.6e-05
2566	7.04e-05
2578	4.51e-05
2590	5.61e-05
2602	5.28e-05
2614	3.08e-05
2626	7.15e-05
2638	5.61e-05
2650	5.61e-05
2662	5.83e-05
2674	9.35e-05
2686	8.58e-05
2698	4.62e-05
2710	6.38e-05
2722	4.29e-05
2734	5.61e-05
2746	1.98e-05
2758	3.41e-05
2770	5.06e-05
2782	4.4e-05
2794	8.8e-06
2806	2.53e-05
2818	2.31e-05
2830	6.38e-05
2842	4.07e-05
2854	3.52e-05
2866	2.53e-05
2878	2.75e-05
2890	3.08e-05
2902	1.98e-05
2914	1.54e-05
2926	1.43e-05
2938	2.53e-05
2950	4.73e-05
2962	4.84e-05
2974	4.62e-05
2986	0.0001133
2998	9.02e-05
3010	0.0001001
3022	0.0001496
3034	0.0003795
3046	0.0006479
3058	0.0009537
3070	0.0009922
3082	0.000715
3094	0.0003564
3106	0.0001243
3118	9.46e-05
3130	8.14e-05
3142	4.73e-05
3154	2.2e-05
3166	3.63e-05
3178	3.96e-05
3190	8.36e-05
3202	4.73e-05
3214	5.83e-05
3226	7.92e-05
3238	0.0001034
3250	7.37e-05
3262	9.9e-05
3274	9.24e-05
3286	0.000143
3298	0.0001375
3310	0.0001628
3322	8.69e-05
3334	9.9e-05
3346	9.35e-05
3358	0.0001023
3370	7.48e-05
3382	4.95e-05
3394	4.51e-05
3406	6.16e-05
3418	9.9e-05
3430	0.0001639
3442	0.0002288
3454	0.0003058
3466	0.0002332
3478	0.0003113
3490	0.0004763
3502	0.0005731
3514	0.0004389
3526	0.0002992
3538	0.0002992
3550	0.0002926
3562	0.0004719
3574	0.0010032
3586	0.003905
3598	0.0094996
3610	0.0108834
3622	0.005588
3634	0.0019954
3646	0.0021659
3658	0.0036212
3670	0.0030767
3682	0.0010384
3694	0.0002508
3706	0.0001793
3718	0.000165
3730	0.0001529
3742	0.0002035
3754	0.0001595
3766	0.0001287
3778	0.0001309
3790	0.0001221
3802	0.0001408
3814	0.0001111
3826	0.0001364
3838	0.0001749
