Infrared Spectrum: 2,6-Dimethylaniline
Formula: C 8 H 11 N
CAS: 87-62-7
State: gas
Origin: EPA-IR VAPOR PHASE LIBRARY
1/CM	ABSORBANCE
549.8	0.007496
559.445	0.006746
569.09	0.006626
578.734	0.007186
588.379	0.007426
598.024	0.007406
607.669	0.008356
617.313	0.008176
626.958	0.008356
636.603	0.009386
646.248	0.010386
655.893	0.010726
665.537	0.011346
675.182	0.010816
684.827	0.010846
694.472	0.010746
704.116	0.010896
713.761	0.012656
723.406	0.015586
733.051	0.020626
742.695	0.027776
752.34	0.035456
761.985	0.024576
771.63	0.017946
781.275	0.008616
790.919	0.006976
800.564	0.005946
810.209	0.005746
819.854	0.005526
829.498	0.004486
839.143	0.004076
848.788	0.003236
858.433	0.002756
868.078	0.002876
877.722	0.002776
887.367	0.002936
897.012	0.003216
906.657	0.002896
916.301	0.002376
925.946	0.002696
935.591	0.002706
945.236	0.003056
954.88	0.003396
964.525	0.003456
974.17	0.004036
983.815	0.004136
993.46	0.005286
1003.1	0.005176
1012.75	0.004366
1022.39	0.003186
1032.04	0.003196
1041.68	0.003116
1051.33	0.003016
1060.97	0.003616
1070.62	0.004946
1080.26	0.006676
1089.91	0.008936
1099.55	0.009256
1109.2	0.007696
1118.84	0.003896
1128.49	0.003706
1138.13	0.004176
1147.78	0.003776
1157.42	0.002696
1167.07	0.002556
1176.71	0.002276
1186.36	0.002336
1196	0.002626
1205.64	0.003956
1215.29	0.006546
1224.93	0.006876
1234.58	0.006376
1244.22	0.005726
1253.87	0.010646
1263.51	0.018766
1273.16	0.019546
1282.8	0.010976
1292.45	0.005266
1302.09	0.004326
1311.74	0.003696
1321.38	0.002606
1331.03	0.001656
1340.67	0.001406
1350.32	0.001546
1359.96	0.001696
1369.61	0.002416
1379.25	0.003136
1388.9	0.003276
1398.54	0.002566
1408.18	0.003266
1417.83	0.006706
1427.47	0.012396
1437.12	0.018556
1446.76	0.021786
1456.41	0.024676
1466.05	0.032286
1475.7	0.038716
1485.34	0.034416
1494.99	0.023646
1504.63	0.010746
1514.28	0.005696
1523.92	0.004256
1533.57	0.003596
1543.21	0.003196
1552.86	0.003176
1562.5	0.003416
1572.15	0.003846
1581.79	0.005236
1591.44	0.007896
1601.08	0.013376
1610.73	0.021926
1620.37	0.029986
1630.01	0.031066
1639.66	0.024236
1649.3	0.014276
1658.95	0.007636
1668.59	0.004766
1678.24	0.003286
1687.88	0.002626
1697.53	0.002256
1707.17	0.002056
1716.82	0.001746
1726.46	0.001516
1736.11	0.001566
1745.75	0.001526
1755.4	0.001666
1765.04	0.001806
1774.69	0.001936
1784.33	0.001776
1793.98	0.001416
1803.62	0.001196
1813.27	0.001296
1822.91	0.001936
1832.55	0.002006
1842.2	0.001686
1851.84	0.001206
1861.49	0.0010522
1871.13	0.001406
1880.78	0.001886
1890.42	0.002236
1900.07	0.001956
1909.71	0.001436
1919.36	0.0010861
1929	0.0010496
1938.65	0.0007872
1948.29	0.0007326
1957.94	0.0006036
1967.58	0.0006929
1977.23	0.000599
1986.87	0.0007129
1996.52	0.0005587
2006.16	0.0005548
2015.81	0.0004833
2025.45	0.0005417
2035.1	0.0005938
2044.74	0.0006732
2054.38	0.0006291
2064.03	0.0006743
2073.67	0.0006016
2083.32	0.0005899
2092.96	0.0005401
2102.61	0.0006092
2112.25	0.0005933
2121.9	0.0005808
2131.54	0.0005236
2141.19	0.0005344
2150.83	0.0005427
2160.48	0.0004191
2170.12	0.0003785
2179.77	0.0003552
2189.41	0.0002434
2199.06	0.0003789
2208.7	0.0003905
2218.35	0.0002914
2227.99	0.0003513
2237.64	0.00032
2247.28	0.0004107
2256.92	0.0004469
2266.57	0.0006561
2276.21	0.0004459
2285.86	0.0005754
2295.5	0.0005499
2305.15	0.0005718
2314.79	0.000511
2324.44	0.0004657
2334.08	0.0002746
2343.73	0.0003433
2353.37	0.0003461
2363.02	0.0003588
2372.66	0.0003885
2382.31	0.0003188
2391.95	0.000244
2401.6	0.0003396
2411.24	0.0003615
2420.89	0.0005261
2430.53	0.0004478
2440.18	0.0006113
2449.82	0.0005167
2459.47	0.0004461
2469.11	0.0006728
2478.75	0.0006545
2488.4	0.0005506
2498.04	0.0004455
2507.69	0.0002885
2517.33	0.000207
2526.98	0.0004323
2536.62	0.0003995
2546.27	0.0003849
2555.91	0.0005613
2565.56	0.0004748
2575.2	0.0005352
2584.85	0.0004362
2594.49	0.0005994
2604.14	0.0006756
2613.78	0.0007947
2623.43	0.0006296
2633.07	0.0003854
2642.72	0.0003726
2652.36	0.0002725
2662.01	0.0003732
2671.65	0.0004438
2681.29	0.0003978
2690.94	0.0006138
2700.58	0.0005714
2710.23	0.0008467
2719.87	0.0009343
2729.52	0.001426
2739.16	0.002006
2748.81	0.002086
2758.45	0.001296
2768.1	0.0008767
2777.74	0.0009559
2787.39	0.0007876
2797.03	0.001286
2806.68	0.001556
2816.32	0.001966
2825.97	0.002606
2835.61	0.003416
2845.26	0.005946
2854.9	0.011936
2864.55	0.018116
2874.19	0.019776
2883.84	0.017396
2893.48	0.016886
2903.12	0.019266
2912.77	0.023816
2922.41	0.027086
2932.06	0.026396
2941.7	0.022016
2951.35	0.016076
2960.99	0.014116
2970.64	0.016376
2980.28	0.016846
2989.93	0.013536
2999.57	0.008536
3009.22	0.008656
3018.86	0.013916
3028.51	0.018376
3038.15	0.019066
3047.8	0.016366
3057.44	0.015736
3067.09	0.014626
3076.73	0.011726
3086.38	0.008656
3096.02	0.005356
3105.67	0.003116
3115.31	0.001816
3124.95	0.001536
3134.6	0.001256
3144.24	0.0010338
3153.89	0.0008437
3163.53	0.0007422
3173.18	0.0009134
3182.82	0.0007428
3192.47	0.0007943
3202.11	0.0007882
3211.76	0.000743
3221.4	0.0008175
3231.05	0.0006969
3240.69	0.0004893
3250.34	0.0003895
3259.98	0.0004223
3269.63	0.0003562
3279.27	0.0003456
3288.92	0.0005389
3298.56	0.0003307
3308.21	0.0002852
3317.85	0.000106306
3327.49	0.00018095
3337.14	3.86e-05
3346.78	0.0003103
3356.43	0.0002956
3366.07	0.0004004
3375.72	0.0005131
3385.36	0.0007213
3395.01	0.001266
3404.65	0.002256
3414.3	0.003216
3423.94	0.002946
3433.59	0.001966
3443.23	0.001266
3452.88	0.001126
3462.52	0.001336
3472.17	0.002446
3481.81	0.004486
3491.46	0.006476
3501.1	0.006686
3510.75	0.004556
3520.39	0.002646
3530.04	0.001456
3539.68	0.0008502
3549.32	0.0006939
3558.97	0.0007456
3568.61	0.0005972
3578.26	0.0004465
3587.9	0.00018163
3597.55	0.0003466
3607.19	0.0002353
3616.84	0.000241
3626.48	0.00012711
3636.13	3.2e-05
3645.77	0.0003143
3655.42	0.000112067
3665.06	0.00010204
3674.71	0.000110651
3684.35	0.00019847
3694	0.00014247
3703.64	0.0002311
3713.29	0.000106442
3722.93	0.00019841
3732.58	0.0001916
3742.22	0.0004708
3751.86	0.00013995
3761.51	0.0003641
3771.15	0.0004124
3780.8	0.0003996
3790.44	0.0002534
3800.09	0.0004691
3809.73	0.0004305
3819.38	0.0003981
3829.02	0.000548
3838.67	0.0004887
3848.31	0.0006421
3857.96	0.0007323
3867.6	0.0006964
3877.25	0.0005896
3886.89	0.0007825
3896.54	0.0005739
3906.18	0.0006159
3915.83	0.0006432
3925.47	0.0006619
3935.12	0.0006914
3944.76	0.0005936
3954.41	0.0005522
3964.05	0.0004778
3973.69	0.0005003
3983.34	0.0004868
3992.98	0.0006199
