Infrared Spectrum: L-TARTARIC ACID
Formula: C4 H6 O6
CAS: 87-69-4
State: SOLID (SPLIT MULL)
Class: COBLENTZ III
Instrument: DOW KBr FOREPRISM-GRATING
Instrument parameters: BLAZED AT 3.5, 12.0, 20.0 MICRON AND CHANGED AT 5.0, 7.5, 14.9 MICRON
Sampling: TRANSMISSION
Resolution: 2
Origin: DOW CHEMICAL COMPANY
1/CM	TRANSMITTANCE
3802	0.8312
3793	0.8309
3784	0.8317
3775	0.8335
3766	0.8371
3757	0.8405
3748	0.8439
3739	0.8473
3730	0.8508
3721	0.8546
3712	0.8585
3703	0.8623
3694	0.8665
3685	0.8707
3676	0.8747
3667	0.8784
3658	0.8821
3649	0.8854
3640	0.8878
3631	0.8903
3622	0.8928
3613	0.8953
3604	0.8962
3595	0.8964
3586	0.8911
3577	0.878
3568	0.88
3559	0.8745
3550	0.8645
3541	0.8496
3532	0.835
3523	0.8207
3514	0.8048
3505	0.7871
3496	0.7532
3487	0.7047
3478	0.6818
3469	0.6532
3460	0.6109
3451	0.5276
3442	0.4655
3433	0.3927
3424	0.3202
3415	0.2201
3406	0.1817
3397	0.2014
3388	0.284
3379	0.3246
3370	0.3508
3361	0.3492
3352	0.2967
3343	0.2322
3334	0.2204
3325	0.255
3316	0.3259
3307	0.3548
3298	0.3821
3289	0.3999
3280	0.4102
3271	0.4194
3262	0.4255
3253	0.4297
3244	0.4316
3235	0.4303
3226	0.426
3217	0.419
3208	0.4119
3199	0.4048
3190	0.4
3181	0.3988
3172	0.3977
3163	0.3962
3154	0.3918
3145	0.3864
3136	0.3808
3127	0.3753
3118	0.3691
3109	0.3632
3100	0.3624
3091	0.366
3082	0.3702
3073	0.3743
3064	0.3779
3055	0.3814
3046	0.3848
3037	0.3879
3028	0.391
3019	0.3945
3010	0.398
3001	0.4002
2992	0.4022
2983	0.4053
2974	0.408
2965	0.3929
2956	0.3884
2947	0.3953
2938	0.3949
2929	0.3879
2920	0.3882
2911	0.3923
2902	0.3964
2893	0.3974
2884	0.3974
2875	0.397
2866	0.3968
2857	0.3968
2848	0.3994
2839	0.4009
2830	0.4028
2821	0.4057
2812	0.4092
2803	0.4137
2794	0.4183
2785	0.4235
2776	0.4288
2767	0.4339
2758	0.4389
2749	0.4438
2740	0.4489
2731	0.4539
2722	0.4591
2713	0.464
2704	0.4687
2695	0.4712
2686	0.4697
2677	0.4693
2668	0.4722
2659	0.4791
2650	0.486
2641	0.4824
2632	0.4747
2623	0.469
2614	0.4665
2605	0.4667
2596	0.4684
2587	0.4707
2578	0.4734
2569	0.4767
2560	0.4788
2551	0.4818
2542	0.4868
2533	0.4948
2524	0.4979
2515	0.4982
2506	0.4918
2497	0.486
2488	0.4893
2479	0.494
2470	0.4989
2461	0.5038
2452	0.5097
2443	0.5162
2434	0.5241
2425	0.5312
2416	0.5386
2407	0.5449
2398	0.5498
2389	0.5543
2380	0.5587
2371	0.5631
2362	0.5676
2353	0.5695
2344	0.5726
2335	0.5756
2326	0.5786
2317	0.5815
2308	0.5851
2299	0.5887
2290	0.5927
2281	0.5973
2272	0.602
2263	0.6083
2254	0.6146
2245	0.6245
2236	0.6342
2227	0.6418
2218	0.6484
2209	0.654
2200	0.6598
2191	0.6655
2182	0.6711
2173	0.6764
2164	0.6817
2155	0.6868
2146	0.6921
2137	0.6971
2128	0.7015
2119	0.7056
2110	0.7096
2101	0.7133
2092	0.7169
2083	0.721
2074	0.7251
2065	0.7287
2056	0.7322
2047	0.7358
2038	0.739
2029	0.7408
2020	0.7415
2011	0.7421
2002	0.7422
1993	0.7365
1984	0.7408
1975	0.7417
1966	0.7415
1957	0.7557
1948	0.7393
1939	0.7368
1930	0.7368
1921	0.7351
1912	0.733
1903	0.7297
1894	0.7201
1885	0.7034
1876	0.6845
1867	0.6795
1858	0.6797
1849	0.6828
1840	0.6774
1831	0.6586
1822	0.6454
1813	0.6392
1804	0.6295
1795	0.6062
1786	0.576
1777	0.5306
1768	0.4588
1759	0.2922
1750	0.1391
1741	0.1036
1732	0.1275
1723	0.1184
1714	0.1355
1705	0.1814
1696	0.2205
1687	0.2612
1678	0.2981
1669	0.3522
1660	0.4118
1651	0.4522
1642	0.501
1633	0.5352
1624	0.5569
1615	0.5759
1606	0.5904
1597	0.6001
1588	0.6082
1579	0.6159
1570	0.6222
1561	0.6287
1552	0.636
1543	0.6444
1534	0.6524
1525	0.6597
1516	0.6655
1507	0.6701
1498	0.674
1489	0.6751
1480	0.6715
1471	0.6561
1462	0.5993
1453	0.5178
1444	0.3812
1435	0.4868
1426	0.5172
1417	0.5494
1408	0.5524
1399	0.4967
1390	0.4866
1381	0.5353
1372	0.5115
1363	0.4764
1354	0.504
1345	0.5414
1336	0.5471
1327	0.5367
1318	0.4966
1309	0.4833
1300	0.5043
1291	0.5238
1282	0.5214
1273	0.4595
1264	0.3564
1255	0.2092
1246	0.2424
1237	0.3629
1228	0.297
1219	0.1864
1210	0.2765
1201	0.2899
1192	0.2234
1183	0.2054
1174	0.3041
1165	0.4244
1156	0.4918
1147	0.5035
1138	0.3734
1129	0.1737
1120	0.3095
1111	0.4531
1102	0.4723
1093	0.2306
1084	0.0841
1075	0.2705
1066	0.3982
1057	0.5015
1048	0.5562
1039	0.586
1030	0.6018
1021	0.6107
1012	0.6077
1003	0.5796
994	0.5372
985	0.5033
976	0.6086
967	0.5978
958	0.5562
949	0.4801
940	0.3834
931	0.4277
922	0.4996
913	0.555
904	0.5853
895	0.5999
886	0.6154
877	0.6078
868	0.5028
859	0.5946
850	0.616
841	0.6175
832	0.6055
823	0.5591
814	0.577
805	0.5292
796	0.4828
787	0.484
778	0.5262
769	0.5729
760	0.5986
751	0.5957
742	0.511
733	0.3584
724	0.4865
715	0.5503
706	0.59
697	0.5964
688	0.5527
679	0.4678
670	0.3133
661	0.3108
652	0.4527
643	0.5182
634	0.5279
625	0.4637
616	0.447
607	0.4701
598	0.4905
589	0.5047
580	0.4934
571	0.5125
562	0.5651
553	0.6096
544	0.636
535	0.6457
526	0.6334
517	0.6204
508	0.6238
499	0.5981
490	0.6133
481	0.5744
472	0.5975
463	0.6274
