Infrared Spectrum: SACCHARIC ACID
Formula: C6 H10 O8
CAS: 87-73-0
Class: COBLENTZ
Instrument: Not specified, most likely a prism, grating, or hybrid spectrometer.
Sampling: TRANSMISSION
Path length: SMEAR
Resolution: 4
Origin: WYANDOTTE CHEMICALS CORP., WYANDOTTE, MICHIGAN, USA
MICROMETERS	TRANSMITTANCE
2.006	0.99
2.04314	0.992
2.08027	0.987
2.11741	0.992
2.15455	0.992
2.19168	0.992
2.22882	0.992
2.26595	0.989
2.30309	0.987
2.34023	0.978
2.37736	0.969
2.4145	0.953
2.45164	0.958
2.48877	0.95
2.52591	0.945
2.56304	0.945
2.60018	0.93
2.63732	0.922
2.67445	0.899
2.71159	0.729
2.74873	0.551
2.78586	0.309
2.823	0.191
2.86013	0.151
2.89727	0.119
2.93441	0.111
2.97154	0.108
3.00868	0.113
3.04582	0.122
3.08295	0.145
3.12009	0.168
3.15722	0.213
3.19436	0.261
3.2315	0.328
3.26863	0.4
3.30577	0.428
3.34291	0.45
3.38004	0.436
3.41718	0.458
3.45432	0.479
3.49145	0.49
3.52859	0.529
3.56572	0.588
3.60286	0.609
3.64	0.62
3.67713	0.637
3.71427	0.648
3.75141	0.664
3.78854	0.676
3.82568	0.684
3.86281	0.695
3.89995	0.696
3.93709	0.704
3.97422	0.71
4.01136	0.722
4.0485	0.736
4.08563	0.753
4.12277	0.76
4.1599	0.769
4.19704	0.781
4.23418	0.789
4.27131	0.798
4.30845	0.812
4.34559	0.835
4.38272	0.82
4.41986	0.815
4.45699	0.815
4.49413	0.823
4.53127	0.825
4.5684	0.826
4.60554	0.815
4.64268	0.831
4.67981	0.821
4.71695	0.828
4.75408	0.828
4.79122	0.821
4.82836	0.823
4.86549	0.821
4.90263	0.832
4.93977	0.828
4.9769	0.826
5.01404	0.817
5.05118	0.814
5.08831	0.814
5.12545	0.814
5.16258	0.809
5.19972	0.811
5.23686	0.809
5.27399	0.804
5.31113	0.786
5.34827	0.78
5.3854	0.76
5.42254	0.729
5.45967	0.662
5.49681	0.52
5.53395	0.229
5.57108	0.089
5.60822	0.069
5.64536	0.068
5.68249	0.085
5.71963	0.091
5.75676	0.094
5.7939	0.128
5.83104	0.301
5.86817	0.391
5.90531	0.523
5.94245	0.583
5.97958	0.608
6.01672	0.583
6.05385	0.565
6.09099	0.56
6.12813	0.583
6.16526	0.643
6.2024	0.69
6.23954	0.722
6.27667	0.73
6.31381	0.738
6.35095	0.739
6.38808	0.75
6.42522	0.739
6.46235	0.738
6.49949	0.733
6.53663	0.724
6.57376	0.724
6.6109	0.713
6.64804	0.69
6.68517	0.653
6.72231	0.599
6.75944	0.54
6.79658	0.431
6.83372	0.371
6.87085	0.3
6.90799	0.263
6.94513	0.32
6.98226	0.346
7.0194	0.359
7.05653	0.373
7.09367	0.393
7.13081	0.408
7.16794	0.436
7.20508	0.447
7.24222	0.439
7.27935	0.4
7.31649	0.371
7.35362	0.331
7.39076	0.298
7.4279	0.273
7.46503	0.287
7.50217	0.273
7.53931	0.264
7.57644	0.255
7.61358	0.233
7.65072	0.221
7.68785	0.201
7.72499	0.191
7.76212	0.187
7.79926	0.187
7.8364	0.182
7.87353	0.181
7.91067	0.182
7.94781	0.173
7.98494	0.165
8.02208	0.16
8.05921	0.151
8.09635	0.15
8.13349	0.143
8.17062	0.147
8.20776	0.147
8.2449	0.14
8.28203	0.13
8.31917	0.12
8.3563	0.109
8.39344	0.103
8.43058	0.1
8.46771	0.102
8.50485	0.109
8.54199	0.123
8.57912	0.1
8.61626	0.088
8.65339	0.082
8.69053	0.071
8.72767	0.068
8.7648	0.08
8.80194	0.078
8.83908	0.094
8.87621	0.119
8.91335	0.139
8.95048	0.153
8.98762	0.154
9.02476	0.147
9.06189	0.147
9.09903	0.15
9.13617	0.15
9.1733	0.147
9.21044	0.147
9.24758	0.167
9.28471	0.198
9.32185	0.252
9.35898	0.272
9.39612	0.287
9.43326	0.301
9.47039	0.309
9.50753	0.315
9.54467	0.312
9.5818	0.298
9.61894	0.25
9.65607	0.202
9.69321	0.164
9.73035	0.147
9.76748	0.142
9.80462	0.14
9.84176	0.15
9.87889	0.181
9.91603	0.196
9.95316	0.195
9.9903	0.212
10.0274	0.238
10.0646	0.269
10.1017	0.301
10.1388	0.317
10.176	0.308
10.2131	0.286
10.2503	0.27
10.2874	0.287
10.3245	0.331
10.3617	0.388
10.3988	0.442
10.4359	0.472
10.4731	0.496
10.5102	0.509
10.5473	0.517
10.5845	0.521
10.6216	0.537
10.6588	0.558
10.6959	0.56
10.733	0.552
10.7702	0.538
10.8073	0.52
10.8444	0.503
10.8816	0.478
10.9187	0.456
10.9558	0.453
10.993	0.465
11.0301	0.476
11.0673	0.475
11.1044	0.461
11.1415	0.439
11.1787	0.444
11.2158	0.452
11.2529	0.465
11.2901	0.493
11.3272	0.504
11.3643	0.521
11.4015	0.524
11.4386	0.521
11.4758	0.518
11.5129	0.518
11.55	0.517
11.5872	0.518
11.6243	0.506
11.6614	0.487
11.6986	0.461
11.7357	0.444
11.7728	0.458
11.81	0.472
11.8471	0.501
11.8843	0.527
11.9214	0.543
11.9585	0.58
11.9957	0.58
12.0328	0.585
12.0699	0.588
12.1071	0.585
12.1442	0.586
12.1813	0.586
12.2185	0.578
12.2556	0.569
12.2928	0.543
12.3299	0.515
12.367	0.469
12.4042	0.456
12.4413	0.445
12.4784	0.45
12.5156	0.455
12.5527	0.464
12.5898	0.456
12.627	0.458
12.6641	0.461
12.7012	0.45
12.7384	0.448
12.7755	0.442
12.8127	0.433
12.8498	0.422
12.8869	0.407
12.9241	0.402
12.9612	0.402
12.9983	0.407
13.0355	0.413
13.0726	0.428
13.1097	0.427
13.1469	0.45
13.184	0.456
13.2212	0.464
13.2583	0.478
13.2954	0.484
13.3326	0.486
13.3697	0.489
13.4068	0.482
13.444	0.484
13.4811	0.478
13.5182	0.479
13.5554	0.472
13.5925	0.473
13.6297	0.469
13.6668	0.467
13.7039	0.461
13.7411	0.462
13.7782	0.462
13.8153	0.458
13.8525	0.452
13.8896	0.438
13.9267	0.433
13.9639	0.413
14.001	0.411
14.0382	0.413
14.0753	0.417
14.1124	0.419
14.1496	0.422
14.1867	0.422
14.2238	0.431
14.261	0.431
14.2981	0.43
14.3352	0.433
14.3724	0.431
14.4095	0.428
14.4467	0.433
14.4838	0.434
14.5209	0.441
14.5581	0.447
14.5952	0.442
14.6323	0.441
14.6695	0.455
14.7066	0.456
14.7437	0.452
14.7809	0.462
14.818	0.458
14.8552	0.456
14.8923	0.453
14.9294	0.456
14.9666	0.458
15.0037	0.461
15.0408	0.456
15.078	0.448
15.1151	0.441
15.1522	0.438
15.1894	0.438
15.2265	0.447
15.2637	0.456
15.3008	0.461
15.3379	0.462
15.3751	0.469
15.4122	0.473
15.4493	0.473
15.4865	0.47
15.5236	0.481
15.5607	0.489
15.5979	0.486
15.635	0.49
15.6722	0.495
15.7093	0.503
15.7464	0.51
15.7836	0.517
15.8207	0.523
15.8578	0.526
15.895	0.53
15.9321	0.54
15.9692	0.541
