Infrared Spectrum: Pentachlorophenol
Formula: C 6 H Cl 5 O
CAS: 87-86-5
State: gas
Instrument: HP-GC/MS/IRD
Origin: NIST Mass Spectrometry Data Center
1/CM	ABSORBANCE
550	0.0002075
562	2.5e-06
574	7.75e-05
586	0.000225
598	0.0001625
610	0.00028
622	0.00026
634	0.00063
646	0.0021
658	0.0008925
670	0.00101
682	0.00169
694	0.003465
706	0.00866
718	0.0048025
730	0.0018375
742	0.0016025
754	0.0042325
766	0.01261
778	0.0031775
790	0.00156
802	0.001345
814	0.0006
826	0.0003125
838	0.000245
850	0.0002425
862	0.0002425
874	0.000295
886	0.0002675
898	0.0003325
910	0.0005075
922	0.0005825
934	0.0006725
946	0.0007375
958	0.0006725
970	0.0011375
982	0.0031225
994	0.0016625
1006	0.0004625
1018	0.0003925
1030	0.0004525
1042	0.00051
1054	0.0003875
1066	0.0004075
1078	0.00036
1090	0.0004175
1102	0.00046
1114	0.000385
1126	0.00085
1138	0.001395
1150	0.0004425
1162	0.000655
1174	0.00157
1186	0.0079525
1198	0.0150125
1210	0.005255
1222	0.0016375
1234	0.0010975
1246	0.0014275
1258	0.0024725
1270	0.00958
1282	0.019435
1294	0.005145
1306	0.0031625
1318	0.0015775
1330	0.0018925
1342	0.002995
1354	0.0026525
1366	0.00737
1378	0.025
1390	0.01001
1402	0.010245
1414	0.018105
1426	0.005255
1438	0.001295
1450	0.0011025
1462	0.0008975
1474	0.000915
1486	0.0012525
1498	0.00112
1510	0.00081
1522	0.0011225
1534	0.0022525
1546	0.0038075
1558	0.0019425
1570	0.0007475
1582	0.000455
1594	0.0004825
1606	0.0003675
1618	0.000295
1630	0.0002325
1642	0.0001275
1654	0.00011
1666	0.0001275
1678	9.5e-05
1690	0.0001125
1702	6.75e-05
1714	5.5e-05
1726	7.5e-05
1738	0.0001075
1750	0.0001375
1762	0.0001075
1774	8.75e-05
1786	6e-05
1798	8e-05
1810	5.25e-05
1822	5e-05
1834	6.25e-05
1846	7.75e-05
1858	6.5e-05
1870	8e-05
1882	7.75e-05
1894	7.75e-05
1906	4.75e-05
1918	3.25e-05
1930	4.75e-05
1942	4.5e-05
1954	6e-05
1966	8.5e-05
1978	6.75e-05
1990	6.75e-05
2002	0.0001
2014	0.0001225
2026	0.0001325
2038	8.25e-05
2050	6.25e-05
2062	7.75e-05
2074	7.25e-05
2086	6e-05
2098	1.25e-05
2110	3e-05
2122	4e-05
2134	3.5e-05
2146	4.5e-05
2158	3.75e-05
2170	5.25e-05
2182	7.5e-05
2194	2e-05
2206	0
2218	5e-06
2230	6e-05
2242	9e-05
2254	8.75e-05
2266	0.0001
2278	9.75e-05
2290	6.75e-05
2302	7.25e-05
2314	6e-05
2326	6.75e-05
2338	5.5e-05
2350	7.25e-05
2362	0.00011
2374	0.00013
2386	0.000175
2398	0.0001725
2410	7.25e-05
2422	6.25e-05
2434	4.75e-05
2446	7.5e-05
2458	0.0001075
2470	0.000115
2482	8.5e-05
2494	9e-05
2506	7.75e-05
2518	8e-05
2530	0.0001175
2542	0.000145
2554	9.25e-05
2566	5.75e-05
2578	6.5e-05
2590	7.75e-05
2602	0.0001025
2614	9.75e-05
2626	6e-05
2638	7.5e-05
2650	7.75e-05
2662	8.25e-05
2674	0.00011
2686	0.0001225
2698	9e-05
2710	5.5e-05
2722	9.5e-05
2734	7.75e-05
2746	0.000115
2758	8.75e-05
2770	5.25e-05
2782	6.5e-05
2794	0.000115
2806	0.000125
2818	0.000115
2830	0.000105
2842	8.75e-05
2854	7.25e-05
2866	7.5e-05
2878	7.25e-05
2890	6e-05
2902	6.5e-05
2914	3.25e-05
2926	5e-05
2938	5.75e-05
2950	9e-05
2962	0.00011
2974	8e-05
2986	5.75e-05
2998	3.75e-05
3010	6.5e-05
3022	5.75e-05
3034	8.5e-05
3046	5.5e-05
3058	4e-05
3070	6.25e-05
3082	4.5e-05
3094	8.75e-05
3106	0.000105
3118	8.5e-05
3130	0.000105
3142	0.00015
3154	4.75e-05
3166	0.0001025
3178	9.5e-05
3190	8.75e-05
3202	0.0001125
3214	0.00013
3226	0.000115
3238	7.25e-05
3250	0.0001
3262	9e-05
3274	6.25e-05
3286	6.25e-05
3298	6.25e-05
3310	8e-05
3322	9.5e-05
3334	6.75e-05
3346	6.25e-05
3358	7.75e-05
3370	8.75e-05
3382	0.000105
3394	0.0001
3406	4.25e-05
3418	2e-05
3430	9.25e-05
3442	3.25e-05
3454	6.25e-05
3466	0.0001175
3478	0.0001425
3490	8e-05
3502	0.0001175
3514	0.00021
3526	0.0003875
3538	0.001035
3550	0.00888
3562	0.0150775
3574	0.0037175
3586	0.0007025
3598	0.0003125
3610	0.00016
3622	8.75e-05
3634	9.25e-05
3646	0.0001125
3658	0.0001025
3670	5e-05
3682	4e-05
3694	6.5e-05
3706	1.25e-05
3718	5.75e-05
3730	2.5e-05
3742	6e-05
3754	6.25e-05
3766	6e-05
3778	8e-05
3790	5.75e-05
3802	0.0001175
3814	4.75e-05
3826	4.75e-05
3838	9e-05
