Infrared Spectrum: TETRACHLOROHYDROQUINONE
Formula: C6 H2 Cl4 O2
CAS: 87-87-6
State: SOLID (MINERAL OIL MULL)
Class: COBLENTZ
Instrument: Not specified, most likely a prism, grating, or hybrid spectrometer.
Sampling: TRANSMISSION
Resolution: 4
Origin: WYANDOTTE CHEMICALS CORP., WYANDOTTE, MICHIGAN, USA
MICROMETERS	TRANSMITTANCE
2.041	0.436
2.08181	0.447
2.12263	0.459
2.16344	0.47
2.20426	0.479
2.24507	0.488
2.28589	0.496
2.3267	0.51
2.36752	0.522
2.40833	0.532
2.44915	0.547
2.48996	0.558
2.53078	0.563
2.57159	0.588
2.6124	0.597
2.65322	0.607
2.69403	0.626
2.73485	0.638
2.77566	0.67
2.81648	0.691
2.85729	0.72
2.89811	0.645
2.93892	0.482
2.97974	0.24
3.02055	0.23
3.06137	0.324
3.10218	0.421
3.14299	0.459
3.18381	0.482
3.22462	0.501
3.26544	0.501
3.30625	0.482
3.34707	0.255
3.38788	0.056
3.4287	0.049
3.46951	0.131
3.51033	0.112
3.55114	0.38
3.59196	0.633
3.63277	0.662
3.67359	0.656
3.7144	0.658
3.75521	0.67
3.79603	0.684
3.83684	0.697
3.87766	0.708
3.91847	0.725
3.95929	0.726
4.0001	0.733
4.04092	0.733
4.08173	0.733
4.12255	0.735
4.16336	0.737
4.20418	0.752
4.24499	0.759
4.2858	0.752
4.32662	0.773
4.36743	0.791
4.40825	0.808
4.44906	0.819
4.48988	0.82
4.53069	0.82
4.57151	0.824
4.61232	0.832
4.65314	0.841
4.69395	0.851
4.73477	0.86
4.77558	0.861
4.81639	0.861
4.85721	0.873
4.89802	0.88
4.93884	0.89
4.97965	0.895
5.02047	0.902
5.06128	0.904
5.1021	0.906
5.14291	0.911
5.18373	0.912
5.22454	0.924
5.26536	0.923
5.30617	0.923
5.34698	0.93
5.3878	0.935
5.42861	0.938
5.46943	0.94
5.51024	0.945
5.55106	0.952
5.59187	0.955
5.63269	0.957
5.6735	0.955
5.71432	0.953
5.75513	0.941
5.79595	0.93
5.83676	0.924
5.87757	0.914
5.91839	0.86
5.9592	0.861
6.00002	0.878
6.04083	0.863
6.08165	0.904
6.12246	0.914
6.16328	0.923
6.20409	0.926
6.24491	0.93
6.28572	0.94
6.32654	0.933
6.36735	0.938
6.40817	0.948
6.44898	0.943
6.48979	0.95
6.53061	0.928
6.57142	0.926
6.61224	0.924
6.65305	0.892
6.69387	0.82
6.73468	0.754
6.7755	0.525
6.81631	0.336
6.85713	0.401
6.89794	0.47
6.93876	0.532
6.97957	0.561
7.02038	0.421
7.0612	0.073
7.10201	0.085
7.14283	0.296
7.18364	0.477
7.22446	0.489
7.26527	0.46
7.30609	0.629
7.3469	0.656
7.38772	0.721
7.42853	0.68
7.46935	0.633
7.51016	0.592
7.55097	0.51
7.59179	0.315
7.6326	0.141
7.67342	0.22
7.71423	0.363
7.75505	0.45
7.79586	0.564
7.83668	0.626
7.87749	0.668
7.91831	0.704
7.95912	0.728
7.99994	0.728
8.04075	0.708
8.08156	0.711
8.12238	0.638
8.16319	0.506
8.20401	0.462
8.24482	0.44
8.28564	0.286
8.32645	0.221
8.36727	0.296
8.40808	0.414
8.4489	0.443
8.48971	0.447
8.53053	0.501
8.57134	0.527
8.61215	0.578
8.65297	0.6
8.69378	0.61
8.7346	0.645
8.77541	0.653
8.81623	0.662
8.85704	0.668
8.89786	0.677
8.93867	0.658
8.97949	0.639
9.0203	0.651
9.06112	0.679
9.10193	0.694
9.14275	0.703
9.18356	0.715
9.22437	0.721
9.26519	0.73
9.306	0.738
9.34682	0.752
9.38763	0.755
9.42845	0.759
9.46926	0.762
9.51008	0.764
9.55089	0.762
9.59171	0.757
9.63252	0.755
9.67334	0.752
9.71415	0.759
9.75496	0.761
9.79578	0.764
9.83659	0.776
9.87741	0.783
9.91822	0.802
9.95904	0.807
9.99985	0.812
10.0407	0.817
10.0815	0.822
10.1223	0.822
10.1631	0.812
10.2039	0.817
10.2447	0.819
10.2856	0.822
10.3264	0.822
10.3672	0.822
10.408	0.819
10.4488	0.82
10.4896	0.832
10.5304	0.843
10.5713	0.853
10.6121	0.86
10.6529	0.861
10.6937	0.863
10.7345	0.868
10.7753	0.872
10.8161	0.873
10.857	0.877
10.8978	0.878
10.9386	0.865
10.9794	0.802
11.0202	0.732
11.061	0.791
11.1018	0.824
11.1427	0.839
11.1835	0.812
11.2243	0.713
11.2651	0.566
11.3059	0.3
11.3467	0.151
11.3875	0.247
11.4284	0.484
11.4692	0.587
11.51	0.631
11.5508	0.66
11.5916	0.699
11.6324	0.72
11.6733	0.733
11.7141	0.75
11.7549	0.757
11.7957	0.767
11.8365	0.773
11.8773	0.788
11.9181	0.8
11.959	0.8
11.9998	0.808
12.0406	0.812
12.0814	0.817
12.1222	0.82
12.163	0.82
12.2038	0.825
12.2447	0.825
12.2855	0.825
12.3263	0.82
12.3671	0.82
12.4079	0.829
12.4487	0.831
12.4895	0.834
12.5304	0.839
12.5712	0.843
12.612	0.843
12.6528	0.843
12.6936	0.853
12.7344	0.851
12.7752	0.851
12.8161	0.851
12.8569	0.849
12.8977	0.851
12.9385	0.849
12.9793	0.851
13.0201	0.853
13.0609	0.853
13.1018	0.854
13.1426	0.853
13.1834	0.854
13.2242	0.853
13.265	0.849
13.3058	0.844
13.3467	0.849
13.3875	0.846
13.4283	0.846
13.4691	0.841
13.5099	0.831
13.5507	0.824
13.5915	0.817
13.6324	0.81
13.6732	0.79
13.714	0.754
13.7548	0.709
13.7956	0.65
13.8364	0.595
13.8772	0.561
13.9181	0.549
13.9589	0.549
13.9997	0.549
14.0405	0.549
14.0813	0.561
14.1221	0.573
14.1629	0.58
14.2038	0.566
14.2446	0.559
14.2854	0.581
14.3262	0.641
14.367	0.704
14.4078	0.762
14.4486	0.791
14.4895	0.812
14.5303	0.822
14.5711	0.831
14.6119	0.834
14.6527	0.837
14.6935	0.834
14.7343	0.836
14.7752	0.841
14.816	0.837
14.8568	0.834
14.8976	0.834
14.9384	0.832
14.9792	0.824
15.0201	0.793
15.0609	0.766
15.1017	0.773
15.1425	0.791
15.1833	0.807
15.2241	0.791
15.2649	0.788
15.3058	0.779
15.3466	0.773
15.3874	0.762
15.4282	0.759
15.469	0.754
15.5098	0.747
15.5506	0.74
15.5915	0.733
15.6323	0.723
15.6731	0.718
15.7139	0.711
15.7547	0.699
15.7955	0.699
15.8363	0.687
15.8772	0.682
15.918	0.672
15.9588	0.66
