Infrared Spectrum: BENZENE, HEXABROMO-
Formula: C6 Br6
CAS: 87-82-1
State: SOLID (KBr DISC)
Class: COBLENTZ III
Instrument: PERKIN-ELMER 283
Sampling: TRANSMISSION
Resolution: 4
Origin: PERKIN-ELMER
1/CM	TRANSMITTANCE
200.585	0.037
210.338	0.034
220.091	0.069
229.844	0.153
239.597	0.257
249.35	0.445
259.103	0.583
268.856	0.71
278.609	0.777
288.361	0.826
298.114	0.857
307.867	0.882
317.62	0.901
327.373	0.918
337.126	0.93
346.879	0.948
356.632	0.95
366.385	0.958
376.138	0.962
385.891	0.968
395.644	0.97
405.397	0.967
415.15	0.968
424.903	0.97
434.656	0.966
444.408	0.968
454.161	0.967
463.914	0.965
473.667	0.962
483.42	0.962
493.173	0.965
502.926	0.961
512.679	0.959
522.432	0.957
532.185	0.936
541.938	0.91
551.691	0.799
561.444	0.866
571.197	0.948
580.95	0.954
590.703	0.954
600.455	0.961
610.208	0.959
619.961	0.957
629.714	0.962
639.467	0.965
649.22	0.963
658.973	0.962
668.726	0.965
678.479	0.963
688.232	0.963
697.985	0.962
707.738	0.961
717.491	0.961
727.244	0.959
736.997	0.956
746.75	0.95
756.503	0.958
766.255	0.956
776.008	0.952
785.761	0.953
795.514	0.952
805.267	0.952
815.02	0.945
824.773	0.944
834.526	0.943
844.279	0.937
854.032	0.934
863.785	0.93
873.538	0.922
883.291	0.903
893.044	0.928
902.797	0.93
912.55	0.927
922.302	0.925
932.055	0.922
941.808	0.921
951.561	0.919
961.314	0.918
971.067	0.917
980.82	0.916
990.573	0.913
1000.33	0.912
1010.08	0.909
1019.83	0.901
1029.58	0.891
1039.34	0.901
1049.09	0.896
1058.84	0.892
1068.6	0.892
1078.35	0.891
1088.1	0.888
1097.86	0.886
1107.61	0.885
1117.36	0.882
1127.11	0.882
1136.87	0.881
1146.62	0.879
1156.37	0.868
1166.13	0.878
1175.88	0.875
1185.63	0.873
1195.38	0.868
1205.14	0.864
1214.89	0.857
1224.64	0.846
1234.4	0.801
1244.15	0.655
1253.9	0.5383
1263.66	0.838
1273.41	0.764
1283.16	0.5539
1292.91	0.144
1302.67	0.5279
1312.42	0.886
1322.17	0.878
1331.93	0.857
1341.68	0.839
1351.43	0.877
1361.18	0.868
1370.94	0.857
1380.69	0.857
1390.44	0.866
1400.2	0.865
1409.95	0.864
1419.7	0.859
1429.46	0.857
1439.21	0.859
1448.96	0.857
1458.71	0.855
1468.47	0.854
1478.22	0.852
1487.97	0.852
1497.73	0.851
1507.48	0.847
1517.23	0.839
1526.98	0.838
1536.74	0.837
1546.49	0.835
1556.24	0.832
1566	0.832
1575.75	0.828
1585.5	0.822
1595.26	0.819
1605.01	0.812
1614.76	0.811
1624.51	0.808
1634.27	0.811
1644.02	0.811
1653.77	0.808
1663.53	0.812
1673.28	0.812
1683.03	0.812
1692.78	0.812
1702.54	0.811
1712.29	0.807
1722.04	0.806
1731.8	0.806
1741.55	0.808
1751.3	0.81
1761.06	0.808
1770.81	0.808
1780.56	0.808
1790.31	0.804
1800.07	0.801
1809.82	0.802
1819.57	0.795
1829.33	0.793
1839.08	0.795
1848.83	0.791
1858.58	0.789
1868.34	0.79
1878.09	0.781
1887.84	0.78
1897.6	0.777
1907.35	0.772
1917.1	0.771
1926.86	0.771
1936.61	0.771
1946.36	0.768
1956.11	0.767
1965.87	0.764
1975.62	0.762
1985.37	0.76
1995.13	0.758
2004.88	0.7625
2014.63	0.762
2024.38	0.76
2034.14	0.7585
2043.89	0.75
2053.64	0.749
2063.4	0.7469
2073.15	0.742
2082.9	0.7416
2092.66	0.742
2102.41	0.741
2112.16	0.74
2121.91	0.739
2131.67	0.737
2141.42	0.7338
2151.17	0.731
2160.93	0.7274
2170.68	0.728
2180.43	0.726
2190.18	0.724
2199.94	0.723
2209.69	0.7207
2219.44	0.715
2229.2	0.713
2238.95	0.711
2248.7	0.7093
2258.46	0.705
2268.21	0.7013
2277.96	0.701
2287.71	0.7
2297.47	0.7
2307.22	0.697
2316.97	0.6953
2326.73	0.693
2336.48	0.6896
2346.23	0.687
2355.98	0.686
2365.74	0.682
2375.49	0.679
2385.24	0.674
2395	0.671
2404.75	0.669
2414.5	0.667
2424.26	0.6652
2434.01	0.661
2443.76	0.658
2453.51	0.6572
2463.27	0.658
2473.02	0.656
2482.77	0.655
2492.53	0.652
2502.28	0.645
2512.03	0.643
2521.78	0.642
2531.54	0.6391
2541.29	0.633
2551.04	0.631
2560.8	0.6301
2570.55	0.629
2580.3	0.626
2590.06	0.626
2599.81	0.625
2609.56	0.6222
2619.31	0.621
2629.07	0.62
2638.82	0.617
2648.57	0.616
2658.33	0.614
2668.08	0.6091
2677.83	0.608
2687.58	0.607
2697.34	0.605
2707.09	0.605
2716.84	0.605
2726.6	0.603
2736.35	0.602
2746.1	0.599
2755.85	0.596
2765.61	0.595
2775.36	0.594
2785.11	0.593
2794.87	0.589
2804.62	0.587
2814.37	0.585
2824.13	0.582
2833.88	0.581
2843.63	0.5779
2853.38	0.573
2863.14	0.571
2872.89	0.569
2882.64	0.5668
2892.4	0.562
2902.15	0.559
2911.9	0.5578
2921.65	0.5519
2931.41	0.554
2941.16	0.5563
2950.91	0.558
2960.67	0.558
2970.42	0.5581
2980.17	0.559
2989.93	0.5588
2999.68	0.558
3009.43	0.555
3019.18	0.552
3028.94	0.55
3038.69	0.5486
3048.44	0.549
3058.2	0.5494
3067.95	0.5408
3077.7	0.54
3087.45	0.538
3097.21	0.5368
3106.96	0.534
3116.71	0.533
3126.47	0.532
3136.22	0.527
3145.97	0.525
3155.73	0.524
3165.48	0.519
3175.23	0.5187
3184.98	0.5174
3194.74	0.5157
3204.49	0.5134
3214.24	0.5134
3224	0.509
3233.75	0.507
3243.5	0.5044
3253.25	0.5027
3263.01	0.5017
3272.76	0.5
3282.51	0.4976
3292.27	0.4953
3302.02	0.492
3311.77	0.4896
3321.53	0.487
3331.28	0.485
3341.03	0.4822
3350.78	0.479
3360.54	0.475
3370.29	0.474
3380.04	0.472
3389.8	0.4676
3399.55	0.463
3409.3	0.461
3419.05	0.462
3428.81	0.4601
3438.56	0.458
3448.31	0.457
3458.07	0.456
3467.82	0.456
3477.57	0.454
3487.33	0.453
3497.08	0.453
3506.83	0.454
3516.58	0.455
3526.34	0.457
3536.09	0.458
3545.84	0.456
3555.6	0.4575
3565.35	0.4601
3575.1	0.459
3584.85	0.4564
3594.61	0.456
3604.36	0.456
3614.11	0.454
3623.87	0.453
3633.62	0.453
3643.37	0.453
3653.13	0.453
3662.88	0.453
3672.63	0.452
3682.38	0.452
3692.14	0.45
3701.89	0.449
3711.64	0.448
3721.4	0.4474
3731.15	0.445
3740.9	0.443
3750.65	0.443
3760.41	0.443
3770.16	0.441
3779.91	0.4403
3789.67	0.44
3799.42	0.439
3809.17	0.439
3818.93	0.436
3828.68	0.4357
3838.43	0.434
3848.18	0.432
3857.94	0.431
3867.69	0.431
3877.44	0.43
3887.2	0.428
3896.95	0.427
3906.7	0.4252
3916.45	0.423
3926.21	0.422
3935.96	0.421
3945.71	0.419
3955.47	0.418
3965.22	0.418
3974.97	0.414
3984.73	0.413
3994.48	0.4138
