Infrared Spectrum: TRICHLOROCYANURIC ACID
Formula: C3 Cl3 N3 O3
CAS: 87-90-1
State: SOLID (ARNEEL C MULL)
Class: COBLENTZ
Instrument: PERKIN-ELMER
Sampling: TRANSMISSION
Resolution: 4
MICROMETERS	TRANSMITTANCE
2.018	0.639
2.05478	0.645
2.09155	0.654
2.12833	0.668
2.16511	0.677
2.20189	0.692
2.23866	0.698
2.27544	0.712
2.31222	0.723
2.349	0.735
2.38577	0.746
2.42255	0.752
2.45933	0.759
2.49611	0.778
2.53288	0.785
2.56966	0.787
2.60644	0.804
2.64322	0.814
2.67999	0.814
2.71677	0.825
2.75355	0.836
2.79033	0.844
2.8271	0.851
2.86388	0.848
2.90066	0.845
2.93744	0.84
2.97421	0.831
3.01099	0.762
3.04777	0.607
3.08455	0.392
3.12132	0.313
3.1581	0.356
3.19488	0.357
3.23165	0.307
3.26843	0.29
3.30521	0.305
3.34199	0.313
3.37876	0.298
3.41554	0.287
3.45232	0.296
3.4891	0.316
3.52587	0.371
3.56265	0.391
3.59943	0.363
3.63621	0.417
3.67298	0.48
3.70976	0.519
3.74654	0.57
3.78332	0.607
3.82009	0.637
3.85687	0.657
3.89365	0.677
3.93043	0.691
3.9672	0.714
4.00398	0.721
4.04076	0.709
4.07754	0.712
4.11431	0.749
4.15109	0.772
4.18787	0.776
4.22464	0.778
4.26142	0.781
4.2982	0.798
4.33498	0.811
4.37175	0.814
4.40853	0.83
4.44531	0.831
4.48209	0.845
4.51886	0.862
4.55564	0.863
4.59242	0.863
4.6292	0.863
4.66597	0.86
4.70275	0.828
4.73953	0.833
4.77631	0.866
4.81308	0.873
4.84986	0.871
4.88664	0.873
4.92342	0.888
4.96019	0.891
4.99697	0.892
5.03375	0.892
5.07053	0.883
5.1073	0.877
5.14408	0.874
5.18086	0.874
5.21764	0.874
5.25441	0.873
5.29119	0.865
5.32797	0.834
5.36474	0.805
5.40152	0.764
5.4383	0.706
5.47508	0.629
5.51185	0.527
5.54863	0.353
5.58541	0.27
5.62219	0.243
5.65896	0.243
5.69574	0.237
5.73252	0.197
5.7693	0.149
5.80607	0.122
5.84285	0.122
5.87963	0.12
5.91641	0.133
5.95318	0.166
5.98996	0.215
6.02674	0.276
6.06352	0.339
6.10029	0.382
6.13707	0.431
6.17385	0.47
6.21063	0.5
6.2474	0.506
6.28418	0.527
6.32096	0.565
6.35773	0.614
6.39451	0.645
6.43129	0.675
6.46807	0.7
6.50484	0.721
6.54162	0.732
6.5784	0.717
6.61518	0.649
6.65195	0.527
6.68873	0.351
6.72551	0.279
6.76229	0.241
6.79906	0.22
6.83584	0.191
6.87262	0.192
6.9094	0.23
6.94617	0.308
6.98295	0.354
7.01973	0.316
7.05651	0.235
7.09328	0.195
7.13006	0.16
7.16684	0.154
7.20362	0.209
7.24039	0.299
7.27717	0.359
7.31395	0.426
7.35073	0.457
7.3875	0.486
7.42428	0.521
7.46106	0.541
7.49783	0.568
7.53461	0.585
7.57139	0.597
7.60817	0.613
7.64494	0.629
7.68172	0.642
7.7185	0.648
7.75528	0.659
7.79205	0.669
7.82883	0.681
7.86561	0.688
7.90239	0.694
7.93916	0.701
7.97594	0.707
8.01272	0.717
8.0495	0.72
8.08627	0.721
8.12305	0.724
8.15983	0.729
8.19661	0.737
8.23338	0.746
8.27016	0.755
8.30694	0.758
8.34372	0.762
8.38049	0.77
8.41727	0.773
8.45405	0.775
8.49083	0.778
8.5276	0.784
8.56438	0.785
8.60116	0.787
8.63793	0.792
8.67471	0.798
8.71149	0.799
8.74827	0.804
8.78504	0.81
8.82182	0.816
8.8586	0.819
8.89538	0.821
8.93215	0.821
8.96893	0.819
9.00571	0.822
9.04249	0.824
9.07926	0.828
9.11604	0.83
9.15282	0.825
9.1896	0.821
9.22637	0.822
9.26315	0.825
9.29993	0.824
9.33671	0.793
9.37348	0.692
9.41026	0.538
9.44704	0.42
9.48382	0.524
9.52059	0.555
9.55737	0.579
9.59415	0.643
9.63092	0.714
9.6677	0.744
9.70448	0.766
9.74126	0.782
9.77803	0.787
9.81481	0.795
9.85159	0.801
9.88837	0.802
9.92514	0.808
9.96192	0.811
9.9987	0.813
10.0355	0.813
10.0723	0.813
10.109	0.814
10.1458	0.818
10.1826	0.821
10.2194	0.825
10.2561	0.825
10.2929	0.827
10.3297	0.83
10.3665	0.83
10.4033	0.83
10.44	0.833
10.4768	0.837
10.5136	0.836
10.5504	0.833
10.5871	0.836
10.6239	0.836
10.6607	0.84
10.6975	0.839
10.7342	0.839
10.771	0.842
10.8078	0.839
10.8446	0.837
10.8814	0.833
10.9181	0.836
10.9549	0.837
10.9917	0.836
11.0285	0.83
11.0652	0.822
11.102	0.828
11.1388	0.825
11.1756	0.824
11.2124	0.811
11.2491	0.81
11.2859	0.807
11.3227	0.805
11.3595	0.799
11.3962	0.792
11.433	0.787
11.4698	0.773
11.5066	0.766
11.5434	0.758
11.5801	0.735
11.6169	0.72
11.6537	0.707
11.6905	0.681
11.7272	0.665
11.764	0.654
11.8008	0.648
11.8376	0.64
11.8743	0.633
11.9111	0.631
11.9479	0.637
11.9847	0.636
12.0215	0.643
12.0582	0.645
12.095	0.64
12.1318	0.619
12.1686	0.587
12.2053	0.555
12.2421	0.535
12.2789	0.504
12.3157	0.477
12.3525	0.446
12.3892	0.435
12.426	0.432
12.4628	0.431
12.4996	0.435
12.5363	0.446
12.5731	0.458
12.6099	0.481
12.6467	0.493
12.6835	0.527
12.7202	0.551
12.757	0.573
12.7938	0.597
12.8306	0.628
12.8673	0.642
12.9041	0.652
12.9409	0.648
12.9777	0.629
13.0144	0.596
13.0512	0.581
13.088	0.577
13.1248	0.57
13.1616	0.597
13.1983	0.657
13.2351	0.721
13.2719	0.749
13.3087	0.773
13.3454	0.776
13.3822	0.784
13.419	0.776
13.4558	0.766
13.4926	0.764
13.5293	0.773
13.5661	0.79
13.6029	0.804
13.6397	0.827
13.6764	0.834
13.7132	0.851
13.75	0.857
13.7868	0.863
13.8236	0.874
13.8603	0.874
13.8971	0.88
13.9339	0.88
13.9707	0.889
14.0074	0.905
14.0442	0.911
14.081	0.918
14.1178	0.922
14.1545	0.925
14.1913	0.932
14.2281	0.937
14.2649	0.94
14.3017	0.94
14.3384	0.943
14.3752	0.944
14.412	0.944
14.4488	0.928
14.4855	0.862
14.5223	0.793
14.5591	0.813
14.5959	0.865
14.6327	0.914
14.6694	0.944
14.7062	0.955
14.743	0.958
14.7798	0.969
14.8165	0.981
14.8533	0.986
14.8901	0.987
14.9269	0.992
14.9637	0.993
15.0004	0.998
15.0372	0.993
15.074	0.996
15.1108	1.009
15.1475	1.006
15.1843	1.015
15.2211	1.018
15.2579	1.021
15.2946	1.021
15.3314	1.025
15.3682	1.024
15.405	1.024
15.4418	1.021
15.4785	1.024
15.5153	1.024
