Infrared Spectrum: Butylformamide
Formula: C 5 H 11 N O
CAS: 871-71-6
State: gas
Instrument: HP-GC/MS/IRD
Origin: NIST Mass Spectrometry Data Center
1/CM	ABSORBANCE
550	0.0001413
562	0.0002178
574	0.0001413
586	0.0003546
598	0.0002898
610	0.000198
622	8.55e-05
634	8.37e-05
646	4.41e-05
658	1.89e-05
670	5.49e-05
682	2.79e-05
694	3.06e-05
706	4.68e-05
718	0.0001062
730	0.0001206
742	0.0001368
754	0.0001854
766	0.0001386
778	8.64e-05
790	0.0001143
802	8.73e-05
814	5.85e-05
826	8.73e-05
838	9.45e-05
850	8.1e-05
862	7.38e-05
874	7.92e-05
886	8.64e-05
898	0.0001125
910	0.0001395
922	0.0001044
934	0.0002196
946	0.0001899
958	0.0001872
970	0.0001935
982	0.0001809
994	0.000198
1006	0.0001656
1018	0.0001584
1030	0.0001233
1042	7.92e-05
1054	0.000117
1066	0.000126
1078	8.19e-05
1090	0.000126
1102	0.0001206
1114	0.0001701
1126	0.0001926
1138	0.0002412
1150	0.0003825
1162	0.0007002
1174	0.0014895
1186	0.0018081
1198	0.0012744
1210	0.0007884
1222	0.000648
1234	0.0006003
1246	0.0005571
1258	0.0005661
1270	0.0005985
1282	0.0005265
1294	0.0004176
1306	0.0003303
1318	0.0002376
1330	0.0001818
1342	0.0001962
1354	0.0002502
1366	0.0003519
1378	0.0004707
1390	0.0004752
1402	0.0004068
1414	0.0003465
1426	0.0005004
1438	0.0008343
1450	0.0011925
1462	0.0015165
1474	0.0019908
1486	0.0024588
1498	0.0021582
1510	0.0012276
1522	0.0005679
1534	0.000297
1546	0.0001935
1558	0.0001323
1570	8.28e-05
1582	8.19e-05
1594	7.47e-05
1606	9.27e-05
1618	0.0001071
1630	0.0001044
1642	0.0001593
1654	0.0002277
1666	0.0003546
1678	0.0006183
1690	0.0010368
1702	0.0020448
1714	0.0046161
1726	0.0083907
1738	0.0083088
1750	0.0033237
1762	0.0010944
1774	0.0004896
1786	0.0002493
1798	0.0001683
1810	0.0001197
1822	8.55e-05
1834	6.66e-05
1846	5.49e-05
1858	3.96e-05
1870	4.5e-05
1882	5.13e-05
1894	3.42e-05
1906	4.5e-05
1918	4.41e-05
1930	4.95e-05
1942	2.43e-05
1954	3.78e-05
1966	1.35e-05
1978	2.88e-05
1990	3.24e-05
2002	3.87e-05
2014	2.79e-05
2026	3.15e-05
2038	2.7e-05
2050	4.95e-05
2062	1.08e-05
2074	3.78e-05
2086	2.97e-05
2098	2.43e-05
2110	2.7e-05
2122	4.77e-05
2134	3.51e-05
2146	2.61e-05
2158	3.51e-05
2170	2.43e-05
2182	4.95e-05
2194	3.42e-05
2206	3.24e-05
2218	3.96e-05
2230	3.87e-05
2242	5.76e-05
2254	4.86e-05
2266	4.68e-05
2278	5.31e-05
2290	4.86e-05
2302	4.41e-05
2314	5.22e-05
2326	6.21e-05
2338	6.21e-05
2350	3.96e-05
2362	4.77e-05
2374	3.87e-05
2386	2.79e-05
2398	3.96e-05
2410	7.2e-06
2422	4.5e-05
2434	4.5e-05
2446	4.5e-05
2458	3.69e-05
2470	4.32e-05
2482	7.11e-05
2494	4.68e-05
2506	3.42e-05
2518	4.68e-05
2530	4.32e-05
2542	4.14e-05
2554	5.22e-05
2566	5.58e-05
2578	4.95e-05
2590	3.15e-05
2602	5.58e-05
2614	6.12e-05
2626	8.64e-05
2638	8.01e-05
2650	8.55e-05
2662	8.55e-05
2674	0.0001152
2686	0.0001449
2698	0.0001539
2710	0.0001701
2722	0.0002295
2734	0.0003375
2746	0.0005499
2758	0.0005301
2770	0.0003375
2782	0.0002691
2794	0.0002826
2806	0.0004005
2818	0.000765
2830	0.0015102
2842	0.0019746
2854	0.0016893
2866	0.0013644
2878	0.0014553
2890	0.0014148
2902	0.0013212
2914	0.0015066
2926	0.0019692
2938	0.0024849
2950	0.0025218
2962	0.0024444
2974	0.0021384
2986	0.0013527
2998	0.000621
3010	0.0003627
3022	0.0002871
3034	0.0001962
3046	0.0001602
3058	0.0001422
3070	0.0001611
3082	0.0001323
3094	0.0001818
3106	0.0001683
3118	0.0001287
3130	9.72e-05
3142	0.000117
3154	7.2e-05
3166	0.0001116
3178	8.73e-05
3190	7.47e-05
3202	8.73e-05
3214	6.03e-05
3226	3.69e-05
3238	5.49e-05
3250	4.32e-05
3262	4.59e-05
3274	6.03e-05
3286	8.82e-05
3298	5.04e-05
3310	2.7e-05
3322	1.62e-05
3334	4.5e-05
3346	9.99e-05
3358	6.57e-05
3370	0.0001188
3382	7.56e-05
3394	0.0001242
3406	0.0001584
3418	0.0002205
3430	0.0002718
3442	0.0003537
3454	0.0003933
3466	0.0004077
3478	0.0003537
3490	0.0002025
3502	0.0001089
3514	0.0001125
3526	8.91e-05
3538	9.72e-05
3550	8.55e-05
3562	8.28e-05
3574	7.92e-05
3586	8.46e-05
3598	5.94e-05
3610	5.13e-05
3622	0.0001323
3634	3.6e-05
3646	6.57e-05
3658	9e-05
3670	9.18e-05
3682	6.39e-05
3694	2.07e-05
3706	5.85e-05
3718	6.03e-05
3730	7.83e-05
3742	0.0001188
3754	8.19e-05
3766	8.28e-05
3778	4.95e-05
3790	9.72e-05
3802	4.86e-05
3814	0.0001215
3826	0.0001188
3838	6.75e-05
