Infrared Spectrum: 2-Methylnonane
Formula: C 10 H 22
CAS: 871-83-0
State: gas
Instrument: HP-GC/MS/IRD
Origin: NIST Mass Spectrometry Data Center
1/CM	ABSORBANCE
550	8.84e-05
562	0.000187
574	0.0001292
586	0.0001122
598	8.16e-05
610	7.48e-05
622	0.000119
634	5.44e-05
646	0.0001292
658	0.0001462
670	0.000102
682	9.86e-05
694	0.0001768
706	0.000323
718	0.0004624
730	0.0003842
742	0.0002992
754	0.0002346
766	0.0002414
778	0.0001802
790	0.0001564
802	0.0001564
814	0.0001394
826	0.0001462
838	0.0001326
850	0.0001394
862	0.0001564
874	8.5e-05
886	0.0001666
898	0.000187
910	0.0002278
922	0.0002346
934	0.00017
946	0.0001904
958	0.0001326
970	0.0001428
982	0.0001496
994	0.0001394
1006	0.0001258
1018	0.0001224
1030	8.84e-05
1042	0.0001088
1054	0.0001156
1066	0.0001394
1078	0.0001564
1090	0.0001258
1102	0.000153
1114	0.0001292
1126	0.0001972
1138	0.0002992
1150	0.00034
1162	0.0005882
1174	0.0005542
1186	0.000323
1198	0.0002754
1210	0.0002516
1222	0.0002652
1234	0.0003094
1246	0.0003094
1258	0.0003196
1270	0.0003672
1282	0.0004488
1294	0.000493
1306	0.000578
1318	0.0006392
1330	0.0008398
1342	0.001037
1354	0.001292
1366	0.0017
1378	0.0020332
1390	0.0019278
1402	0.0008976
1414	0.000612
1426	0.0007344
1438	0.001224
1450	0.002329
1462	0.0034816
1474	0.0029784
1486	0.0014552
1498	0.00068
1510	0.000357
1522	0.000238
1534	0.0001768
1546	0.000153
1558	8.84e-05
1570	0.0001292
1582	0.0001258
1594	0.0001292
1606	0.000136
1618	0.0001122
1630	0.0001156
1642	0.000102
1654	6.46e-05
1666	8.5e-05
1678	8.5e-05
1690	0.000102
1702	3.74e-05
1714	4.08e-05
1726	6.46e-05
1738	6.46e-05
1750	4.76e-05
1762	4.76e-05
1774	3.06e-05
1786	3.06e-05
1798	1.36e-05
1810	4.76e-05
1822	5.78e-05
1834	4.08e-05
1846	3.06e-05
1858	4.42e-05
1870	4.08e-05
1882	6.8e-05
1894	4.76e-05
1906	4.76e-05
1918	3.74e-05
1930	4.08e-05
1942	3.4e-05
1954	4.76e-05
1966	4.42e-05
1978	5.1e-05
1990	2.04e-05
2002	3.4e-05
2014	6.8e-05
2026	4.76e-05
2038	7.14e-05
2050	5.78e-05
2062	6.12e-05
2074	4.42e-05
2086	6.12e-05
2098	6.8e-05
2110	5.78e-05
2122	4.76e-05
2134	4.76e-05
2146	6.8e-05
2158	6.46e-05
2170	5.1e-05
2182	6.46e-05
2194	4.08e-05
2206	6.8e-05
2218	5.44e-05
2230	4.76e-05
2242	5.78e-05
2254	8.84e-05
2266	6.46e-05
2278	6.8e-05
2290	7.82e-05
2302	5.78e-05
2314	6.46e-05
2326	6.8e-05
2338	7.48e-05
2350	7.82e-05
2362	4.76e-05
2374	7.82e-05
2386	0.0001156
2398	0.000102
2410	0.0001088
2422	7.48e-05
2434	0.000102
2446	0.0001122
2458	8.84e-05
2470	9.52e-05
2482	9.86e-05
2494	0.0001088
2506	0.0001054
2518	0.0001326
2530	0.000153
2542	0.0001768
2554	0.0001734
2566	0.0002108
2578	0.0002482
2590	0.0002686
2602	0.0002856
2614	0.0003332
2626	0.0003264
2638	0.0003366
2650	0.0003536
2662	0.0003672
2674	0.0004284
2686	0.0004284
2698	0.000425
2710	0.000493
2722	0.0005168
2734	0.000612
2746	0.0006324
2758	0.000663
2770	0.000731
2782	0.0008636
2794	0.0010812
2806	0.001326
2818	0.0017986
2830	0.0025126
2842	0.0044812
2854	0.0090882
2866	0.0128214
2878	0.0134878
2890	0.0124848
2902	0.0140726
2914	0.0204374
2926	0.0309536
2938	0.0326298
2950	0.0248982
2962	0.0271422
2974	0.019227
2986	0.0071196
2998	0.0034952
3010	0.0021828
3022	0.00153
3034	0.0011696
3046	0.0009656
3058	0.0008364
3070	0.0007276
3082	0.000663
3094	0.0006256
3106	0.0005814
3118	0.0004896
3130	0.0004726
3142	0.0004352
3154	0.0004012
3166	0.0004012
3178	0.0004114
3190	0.000391
3202	0.0003128
3214	0.0002108
3226	0.0001904
3238	0.000153
3250	0.0001836
3262	0.0001598
3274	0.0001564
3286	9.52e-05
3298	0.0001122
3310	0.0001496
3322	0.0001598
3334	0.0001394
3346	0.0001666
3358	0.0001802
3370	0.000153
3382	0.0001462
3394	0.0001122
3406	0.000102
3418	0.0001292
3430	0.000119
3442	0.000119
3454	0.0001224
3466	0.000102
3478	0.0001258
3490	7.48e-05
3502	7.14e-05
3514	0.0001054
3526	0.0001122
3538	8.84e-05
3550	8.84e-05
3562	8.16e-05
3574	8.5e-05
3586	0.0001292
3598	0.0001496
3610	0.0001088
3622	0.000136
3634	0.0001156
3646	0.000153
3658	0.000119
3670	0.0001462
3682	0.0001598
3694	0.0001496
3706	0.0001156
3718	0.00017
3730	0.000119
3742	0.0001428
3754	0.0001428
3766	0.0001632
3778	0.0002074
3790	0.0001632
3802	0.0001598
3814	0.0001802
3826	0.0001836
3838	0.0001734
