Infrared Spectrum: 1,7-Octadiyne
Formula: C 8 H 10
CAS: 871-84-1
State: gas
Instrument: HP-GC/MS/IRD
Origin: NIST Mass Spectrometry Data Center
1/CM	ABSORBANCE
550	0.00052
562	0.0004888
574	0.0004992
586	0.000884
598	0.00195
610	0.0059696
622	0.018876
634	0.052
646	0.0267072
658	0.0070876
670	0.002054
682	0.0008996
694	0.0004836
706	0.0002444
718	0.0002652
730	0.0003588
742	0.00026
754	0.0001976
766	0.00013
778	0.000104
790	0.000104
802	6.24e-05
814	6.24e-05
826	9.36e-05
838	2.08e-05
850	1.56e-05
862	0
874	6.24e-05
886	0.0001768
898	0.0002808
910	0.0003068
922	0.0001872
934	0.000208
946	0.0001404
958	0.0002028
970	0.0001872
982	0.0001872
994	0.0001144
1006	0.0001508
1018	0.0001508
1030	0.0001352
1042	0.00026
1054	0.0002548
1066	0.0002236
1078	0.0001404
1090	8.32e-05
1102	7.8e-05
1114	2.6e-05
1126	6.76e-05
1138	4.16e-05
1150	8.32e-05
1162	5.2e-05
1174	8.84e-05
1186	0.0001924
1198	0.0003224
1210	0.0005616
1222	0.0012792
1234	0.004056
1246	0.0105716
1258	0.0102128
1270	0.003874
1282	0.0017264
1294	0.0011128
1306	0.0011752
1318	0.00195
1330	0.0022412
1342	0.0016328
1354	0.0010712
1366	0.000702
1378	0.0004316
1390	0.000338
1402	0.000364
1414	0.0006708
1426	0.0016692
1438	0.0032396
1450	0.0031824
1462	0.0021528
1474	0.0012272
1486	0.0006344
1498	0.0003432
1510	0.0002652
1522	0.0001976
1534	0.0001352
1546	0.0001196
1558	0.0001404
1570	7.8e-05
1582	7.28e-05
1594	7.8e-05
1606	6.76e-05
1618	8.84e-05
1630	5.72e-05
1642	4.68e-05
1654	3.64e-05
1666	4.68e-05
1678	2.08e-05
1690	1.04e-05
1702	2.6e-05
1714	2.08e-05
1726	2.08e-05
1738	2.08e-05
1750	4.16e-05
1762	3.64e-05
1774	2.08e-05
1786	3.64e-05
1798	4.16e-05
1810	3.64e-05
1822	2.6e-05
1834	2.08e-05
1846	3.64e-05
1858	3.12e-05
1870	1.56e-05
1882	7.28e-05
1894	3.64e-05
1906	3.64e-05
1918	2.6e-05
1930	2.08e-05
1942	2.6e-05
1954	2.08e-05
1966	3.64e-05
1978	4.68e-05
1990	3.64e-05
2002	2.08e-05
2014	4.68e-05
2026	4.68e-05
2038	6.24e-05
2050	9.88e-05
2062	0.0001144
2074	0.0002184
2086	0.0004212
2098	0.0009048
2110	0.0018356
2122	0.002106
2134	0.0010556
2146	0.0003224
2158	0.0001352
2170	9.88e-05
2182	9.88e-05
2194	4.68e-05
2206	7.28e-05
2218	7.28e-05
2230	6.76e-05
2242	6.76e-05
2254	7.28e-05
2266	8.32e-05
2278	6.76e-05
2290	6.24e-05
2302	5.72e-05
2314	5.72e-05
2326	8.32e-05
2338	8.84e-05
2350	5.2e-05
2362	5.2e-05
2374	5.2e-05
2386	4.68e-05
2398	3.12e-05
2410	4.16e-05
2422	2.6e-05
2434	4.16e-05
2446	5.72e-05
2458	5.2e-05
2470	3.12e-05
2482	1.56e-05
2494	4.16e-05
2506	7.28e-05
2518	6.24e-05
2530	5.2e-05
2542	3.12e-05
2554	7.8e-05
2566	6.24e-05
2578	7.8e-05
2590	6.24e-05
2602	0.0001456
2614	0.0001248
2626	0.0002236
2638	0.0002236
2650	0.0002548
2662	0.000286
2674	0.0003276
2686	0.0003952
2698	0.0004264
2710	0.0002548
2722	0.0002444
2734	0.0002548
2746	0.0002652
2758	0.0002444
2770	0.0003172
2782	0.0003068
2794	0.0003744
2806	0.0004576
2818	0.0006604
2830	0.0010244
2842	0.0018408
2854	0.0031616
2866	0.0042536
2878	0.0044512
2890	0.0036556
2902	0.004082
2914	0.006682
2926	0.0109096
2938	0.015028
2950	0.0168272
2962	0.0122096
2974	0.005252
2986	0.0019708
2998	0.0009204
3010	0.000598
3022	0.0004004
3034	0.0002704
3046	0.0002912
3058	0.0001976
3070	0.000156
3082	0.0001716
3094	0.0001768
3106	0.0001924
3118	0.0001924
3130	0.0001872
3142	0.000208
3154	0.0001872
3166	0.0001612
3178	0.00013
3190	0.0001716
3202	0.0002184
3214	0.0002652
3226	0.0002444
3238	0.0003328
3250	0.00052
3262	0.0009412
3274	0.0016588
3286	0.003042
3298	0.0060684
3310	0.0096044
3322	0.01742
3334	0.0170508
3346	0.0050128
3358	0.002184
3370	0.0011336
3382	0.0005616
3394	0.0003172
3406	0.0002184
3418	0.0002236
3430	0.0001404
3442	0.0001248
3454	9.36e-05
3466	8.32e-05
3478	9.36e-05
3490	7.28e-05
3502	0.0001144
3514	0.000104
3526	7.8e-05
3538	5.72e-05
3550	5.72e-05
3562	6.24e-05
3574	4.68e-05
3586	4.68e-05
3598	4.16e-05
3610	5.2e-05
3622	0.0001092
3634	5.72e-05
3646	6.24e-05
3658	6.24e-05
3670	0.000104
3682	0.0001248
3694	6.76e-05
3706	9.36e-05
3718	0.0001144
3730	9.88e-05
3742	9.88e-05
3754	8.32e-05
3766	9.36e-05
3778	0.0001664
3790	8.84e-05
3802	8.32e-05
3814	0.0001404
3826	0.0001196
3838	0.0001664
