Infrared Spectrum: 5-ETHYL-5(1-ETHYLPROPYL) 2-THIOBARBITURIC ACID
Formula: C11 H18 N2 O2 S
CAS: 87171-21-9
State: SOLUTION (2.2% CHCl3)
Class: COBLENTZ
Instrument: Not specified, most likely a prism, grating, or hybrid spectrometer.
Sampling: TRANSMISSION
Path length: 0.01 CM
Resolution: 4
MICROMETERS	TRANSMITTANCE
2.06	0.918
2.09643	0.916
2.13286	0.916
2.16929	0.914
2.20572	0.912
2.24215	0.909
2.27857	0.907
2.315	0.907
2.35143	0.905
2.38786	0.905
2.42429	0.905
2.46072	0.905
2.49715	0.903
2.53358	0.903
2.57001	0.903
2.60644	0.9
2.64287	0.9
2.67929	0.903
2.71572	0.903
2.75215	0.907
2.78858	0.902
2.82501	0.882
2.86144	0.877
2.89787	0.873
2.9343	0.855
2.97073	0.713
3.00716	0.631
3.04359	0.77
3.08001	0.822
3.11644	0.807
3.15287	0.797
3.1893	0.772
3.22573	0.765
3.26216	0.784
3.29859	0.798
3.33502	0.784
3.37145	0.718
3.40788	0.615
3.4443	0.683
3.48073	0.706
3.51716	0.743
3.55359	0.811
3.59002	0.845
3.62645	0.862
3.66288	0.871
3.69931	0.879
3.73574	0.882
3.77217	0.887
3.8086	0.891
3.84502	0.891
3.88145	0.891
3.91788	0.887
3.95431	0.884
3.99074	0.882
4.02717	0.882
4.0636	0.887
4.10003	0.891
4.13646	0.893
4.17289	0.891
4.20932	0.889
4.24574	0.889
4.28217	0.889
4.3186	0.891
4.35503	0.895
4.39146	0.896
4.42789	0.898
4.46432	0.9
4.50075	0.9
4.53718	0.9
4.57361	0.898
4.61004	0.898
4.64646	0.896
4.68289	0.896
4.71932	0.898
4.75575	0.898
4.79218	0.898
4.82861	0.898
4.86504	0.898
4.90147	0.898
4.9379	0.898
4.97433	0.898
5.01076	0.898
5.04718	0.898
5.08361	0.896
5.12004	0.896
5.15647	0.896
5.1929	0.896
5.22933	0.896
5.26576	0.896
5.30219	0.895
5.33862	0.893
5.37505	0.893
5.41148	0.889
5.4479	0.887
5.48433	0.884
5.52076	0.88
5.55719	0.873
5.59362	0.866
5.63005	0.846
5.66648	0.795
5.70291	0.626
5.73934	0.425
5.77577	0.316
5.8122	0.435
5.84862	0.332
5.88505	0.249
5.92148	0.181
5.95791	0.539
5.99434	0.695
6.03077	0.782
6.0672	0.818
6.10363	0.836
6.14006	0.845
6.17649	0.848
6.21291	0.848
6.24934	0.846
6.28577	0.843
6.3222	0.839
6.35863	0.813
6.39506	0.79
6.43149	0.765
6.46792	0.667
6.50435	0.54
6.54078	0.48
6.57721	0.393
6.61363	0.332
6.65006	0.258
6.68649	0.498
6.72292	0.66
6.75935	0.749
6.79578	0.706
6.83221	0.679
6.86864	0.683
6.90507	0.733
6.9415	0.702
6.97793	0.669
7.01435	0.628
7.05078	0.558
7.08721	0.512
7.12364	0.532
7.16007	0.581
7.1965	0.617
7.23293	0.599
7.26936	0.631
7.30579	0.599
7.34222	0.62
7.37865	0.628
7.41507	0.556
7.4515	0.483
7.48793	0.464
7.52436	0.567
7.56079	0.601
7.59722	0.567
7.63365	0.491
7.67008	0.444
7.70651	0.38
7.74294	0.329
7.77937	0.33
7.81579	0.387
7.85222	0.459
7.88865	0.532
7.92508	0.594
7.96151	0.672
7.99794	0.74
8.03437	0.772
8.0708	0.795
8.10723	0.793
8.14366	0.782
8.18009	0.777
8.21651	0.77
8.25294	0.763
8.28937	0.758
8.3258	0.75
8.36223	0.754
8.39866	0.797
8.43509	0.816
8.47152	0.809
8.50795	0.782
8.54438	0.701
8.5808	0.585
8.61723	0.5
8.65366	0.478
8.69009	0.478
8.72652	0.514
8.76295	0.498
8.79938	0.453
8.83581	0.444
8.87224	0.478
8.90867	0.549
8.9451	0.637
8.98152	0.72
9.01795	0.77
9.05438	0.791
9.09081	0.818
9.12724	0.836
9.16367	0.843
9.2001	0.85
9.23653	0.85
9.27296	0.854
9.30939	0.859
9.34582	0.862
9.38224	0.868
9.41867	0.877
9.4551	0.889
9.49153	0.9
9.52796	0.9
9.56439	0.891
9.60082	0.871
9.63725	0.866
9.67368	0.88
9.71011	0.895
9.74654	0.895
9.78296	0.889
9.81939	0.866
9.85582	0.866
9.89225	0.882
9.92868	0.887
9.96511	0.889
10.0015	0.889
10.038	0.887
10.0744	0.886
10.1108	0.884
10.1473	0.884
10.1837	0.882
10.2201	0.873
10.2565	0.877
10.293	0.877
10.3294	0.879
10.3658	0.877
10.4023	0.871
10.4387	0.873
10.4751	0.875
10.5115	0.877
10.548	0.879
10.5844	0.882
10.6208	0.884
10.6573	0.886
10.6937	0.887
10.7301	0.887
10.7665	0.886
10.803	0.88
10.8394	0.877
10.8758	0.87
10.9123	0.866
10.9487	0.868
10.9851	0.87
11.0216	0.871
11.058	0.873
11.0944	0.871
11.1308	0.871
11.1673	0.87
11.2037	0.87
11.2401	0.864
11.2766	0.862
11.313	0.866
11.3494	0.87
11.3858	0.868
11.4223	0.866
11.4587	0.866
11.4951	0.859
11.5316	0.857
11.568	0.855
11.6044	0.859
11.6408	0.861
11.6773	0.862
11.7137	0.868
11.7501	0.866
11.7866	0.864
11.823	0.862
11.8594	0.864
11.8959	0.864
11.9323	0.862
11.9687	0.861
12.0051	0.857
12.0416	0.857
12.078	0.859
12.1144	0.862
12.1509	0.862
12.1873	0.864
12.2237	0.868
12.2601	0.873
12.2966	0.873
12.333	0.873
12.3694	0.875
12.4059	0.877
12.4423	0.873
12.4787	0.873
12.5151	0.873
12.5516	0.871
12.588	0.868
12.6244	0.866
12.6609	0.861
12.6973	0.854
12.7337	0.843
12.7701	0.832
12.8066	0.816
12.843	0.809
12.8794	0.806
12.9159	0.8
12.9523	0.797
12.9887	0.791
13.0252	0.788
13.0616	0.782
13.098	0.777
13.1344	0.774
13.1709	0.77
13.2073	0.763
13.2437	0.759
13.2802	0.756
13.3166	0.749
13.353	0.745
13.3894	0.741
13.4259	0.74
13.4623	0.74
13.4987	0.734
13.5352	0.727
13.5716	0.725
13.608	0.724
13.6444	0.724
13.6809	0.718
13.7173	0.717
13.7537	0.709
13.7902	0.711
13.8266	0.715
13.863	0.72
13.8995	0.725
13.9359	0.74
13.9723	0.754
14.0087	0.766
14.0452	0.781
14.0816	0.791
14.118	0.798
14.1545	0.804
14.1909	0.802
14.2273	0.798
14.2637	0.793
14.3002	0.777
14.3366	0.759
14.373	0.749
14.4095	0.741
14.4459	0.743
14.4823	0.747
14.5187	0.752
14.5552	0.77
14.5916	0.781
14.628	0.791
14.6645	0.798
14.7009	0.811
14.7373	0.814
14.7737	0.814
14.8102	0.813
14.8466	0.809
14.883	0.806
14.9195	0.8
14.9559	0.797
14.9923	0.795
15.0288	0.797
15.0652	0.809
15.1016	0.825
15.138	0.838
15.1745	0.852
15.2109	0.861
15.2473	0.864
15.2838	0.868
15.3202	0.879
15.3566	0.887
15.393	0.882
