Infrared Spectrum: 1-Methyl-2-picolinium iodide
Formula: C7 H10 I N
CAS: 872-73-1
State: SOLID (SPLIT MULL), FLUOROLUBE FOR 3800-1330 CM^-^1, NUJOL FOR 1330-400 CM^-^1
Class: COBLENTZ III
Instrument: BECKMAN IR-9 (GRATING)
Instrument parameters: ORDER CHANGES: 670, 1200, 2000 CM^-^1
Sampling: TRANSMISSION
Resolution: 2
Origin: DOW CHEMICAL COMPANY
1/CM	TRANSMITTANCE
404	0.483
413	0.4944
422	0.5509
431	0.4383
440	0.546
449	0.6682
458	0.7047
467	0.7315
476	0.7431
485	0.7518
494	0.7624
503	0.776
512	0.7882
521	0.7215
530	0.8142
539	0.8262
548	0.835
557	0.8412
566	0.8466
575	0.8506
584	0.8528
593	0.8518
602	0.8578
611	0.8668
620	0.867
629	0.8677
638	0.8682
647	0.8686
656	0.8677
665	0.8665
674	0.8484
683	0.8481
692	0.5806
701	0.7396
710	0.8131
719	0.7796
728	0.7557
737	0.7915
746	0.8083
755	0.8175
764	0.7804
773	0.3512
782	0.6022
791	0.8001
800	0.8134
809	0.8126
818	0.8017
827	0.6878
836	0.8134
845	0.8131
854	0.8121
863	0.8111
872	0.8092
881	0.8086
890	0.8056
899	0.7989
908	0.7948
917	0.7934
926	0.7905
935	0.7853
944	0.7801
953	0.7751
962	0.7692
971	0.7608
980	0.7562
989	0.7654
998	0.7567
1007	0.7411
1016	0.7068
1025	0.5812
1034	0.4586
1043	0.6576
1052	0.6921
1061	0.6857
1070	0.7062
1079	0.6888
1088	0.6179
1097	0.6908
1106	0.6915
1115	0.6665
1124	0.6197
1133	0.6608
1142	0.6574
1151	0.6001
1160	0.4142
1169	0.3157
1178	0.6717
1187	0.5732
1196	0.4857
1205	0.7017
1214	0.6958
1223	0.7089
1232	0.7028
1241	0.6975
1250	0.6538
1259	0.6772
1268	0.6619
1277	0.626
1286	0.469
1295	0.4743
1304	0.6531
1313	0.664
1322	0.6574
1331	0.496
1340	0.57
1349	0.5445
1358	0.5497
1367	0.4196
1376	0.5385
1385	0.6508
1394	0.5926
1403	0.4891
1412	0.6601
1421	0.6721
1430	0.5518
1439	0.5836
1448	0.5893
1457	0.471
1466	0.3578
1475	0.1846
1484	0.6765
1493	0.6449
1502	0.5991
1511	0.434
1520	0.1295
1529	0.5414
1538	0.7753
1547	0.7708
1556	0.7039
1565	0.6876
1574	0.5617
1583	0.3149
1592	0.5441
1601	0.6864
1610	0.7007
1619	0.6712
1628	0.4989
1637	0.0417
1646	0.7074
1655	0.8668
1664	0.828
1673	0.7624
1682	0.7817
1691	0.8139
1700	0.8047
1709	0.7992
1718	0.794
1727	0.7778
1736	0.7591
1745	0.7351
1754	0.73
1763	0.7354
1772	0.7318
1781	0.7374
1790	0.7286
1799	0.7362
1808	0.7396
1817	0.7353
1826	0.7284
1835	0.7186
1844	0.7049
1853	0.6858
1862	0.6548
1871	0.6196
1880	0.6639
1889	0.6917
1898	0.6846
1907	0.6639
1916	0.6539
1925	0.6705
1934	0.6578
1943	0.6254
1952	0.6434
1961	0.6692
1970	0.6676
1979	0.6571
1988	0.6379
1997	0.6342
2006	0.6556
2015	0.6499
2024	0.6193
2033	0.6241
2042	0.6417
2051	0.6414
2060	0.6368
2069	0.6317
2078	0.6259
2087	0.62
2096	0.6142
2105	0.6084
2114	0.6027
2123	0.5969
2132	0.5916
2141	0.5864
2150	0.5814
2159	0.576
2168	0.5702
2177	0.5643
2186	0.5584
2195	0.5518
2204	0.5453
2213	0.5388
2222	0.5324
2231	0.526
2240	0.5198
2249	0.5134
2258	0.5083
2267	0.5034
2276	0.4986
2285	0.4942
2294	0.4903
2303	0.4862
2312	0.4828
2321	0.4797
2330	0.4783
2339	0.4772
2348	0.4735
2357	0.4705
2366	0.4677
2375	0.4666
2384	0.464
2393	0.452
2402	0.4471
2411	0.4458
2420	0.4441
2429	0.4423
2438	0.439
2447	0.4353
2456	0.4316
2465	0.4286
2474	0.4256
2483	0.4202
2492	0.4145
2501	0.4087
2510	0.4094
2519	0.4091
2528	0.4084
2537	0.4078
2546	0.403
2555	0.3972
2564	0.3896
2573	0.3832
2582	0.3827
2591	0.3859
2600	0.3764
2609	0.3686
2618	0.367
2627	0.3697
2636	0.3742
2645	0.3718
2654	0.3682
2663	0.364
2672	0.3597
2681	0.3553
2690	0.3509
2699	0.3468
2708	0.3426
2717	0.3384
2726	0.3341
2735	0.3293
2744	0.3245
2753	0.3197
2762	0.3144
2771	0.309
2780	0.3037
2789	0.2983
2798	0.293
2807	0.2913
2816	0.2893
2825	0.2801
2834	0.2654
2843	0.2283
2852	0.2375
2861	0.2679
2870	0.2693
2879	0.2611
2888	0.2526
2897	0.2453
2906	0.2381
2915	0.2216
2924	0.2235
2933	0.2283
2942	0.2223
2951	0.2084
2960	0.1979
2969	0.2003
2978	0.1884
2987	0.1592
2996	0.0931
3005	0.0628
3014	0.0688
3023	0.0475
3032	0.2106
3041	0.2353
3050	0.2521
3059	0.2759
3068	0.2694
3077	0.2696
3086	0.2581
3095	0.2574
3104	0.2621
3113	0.2665
3122	0.2696
3131	0.2706
3140	0.2642
3149	0.2521
3158	0.2455
3167	0.2484
3176	0.2687
3185	0.2667
3194	0.2612
3203	0.2558
3212	0.252
3221	0.2488
3230	0.2461
3239	0.2434
3248	0.2405
3257	0.2376
3266	0.2348
3275	0.232
3284	0.2296
3293	0.2271
3302	0.2251
3311	0.2232
3320	0.2214
3329	0.2195
3338	0.2176
3347	0.2157
3356	0.2137
3365	0.2117
3374	0.2097
3383	0.2077
3392	0.2057
3401	0.2037
3410	0.2018
3419	0.1999
3428	0.1979
3437	0.196
3446	0.194
3455	0.192
3464	0.19
3473	0.1879
3482	0.1859
3491	0.1842
3500	0.1828
3509	0.1813
3518	0.1799
3527	0.1784
3536	0.177
3545	0.1754
3554	0.1741
3563	0.1726
3572	0.1713
3581	0.17
3590	0.1686
3599	0.1674
3608	0.1662
3617	0.1649
3626	0.1636
3635	0.1624
3644	0.1612
3653	0.1603
3662	0.1594
3671	0.1586
3680	0.1578
3689	0.1569
3698	0.1561
3707	0.1548
3716	0.1531
3725	0.1514
3734	0.1496
3743	0.1482
3752	0.1469
3761	0.1455
3770	0.1438
3779	0.142
3788	0.1409
3797	0.1403
