Infrared Spectrum: Isopropylcyclobutane
Formula: C 7 H 14
CAS: 872-56-0
State: gas
Instrument: HP-GC/MS/IRD
Origin: NIST Mass Spectrometry Data Center
1/CM	ABSORBANCE
550	0.0002016
562	0.0001092
574	0.0001365
586	0.0002835
598	0.0002919
610	0.0003654
622	0.000189
634	9.45e-05
646	0.0002205
658	0.0004242
670	0.0003822
682	0.0002478
694	0.0002457
706	0.0001575
718	0.0003255
730	0.0002751
742	0.0002268
754	0.0002961
766	0.0002604
778	0.0003402
790	0.000315
802	0.0002163
814	0.0001785
826	0.0001617
838	0.0002646
850	0.0002583
862	0.0003045
874	0.0003276
886	0.0003318
898	0.0002919
910	0.0003591
922	0.0003927
934	0.0004095
946	0.0003717
958	0.0002667
970	0.0002478
982	0.0002919
994	0.0003255
1006	0.0003927
1018	0.0002478
1030	0.0002772
1042	0.0002541
1054	0.0003087
1066	0.0002436
1078	0.0002079
1090	0.0001113
1102	0.0001848
1114	0.0002121
1126	0.0003297
1138	0.0004074
1150	0.0003822
1162	0.0004263
1174	0.000378
1186	0.0003003
1198	0.0003402
1210	0.0003423
1222	0.0004053
1234	0.0005124
1246	0.0005355
1258	0.0004935
1270	0.0005292
1282	0.0006909
1294	0.0008148
1306	0.0006258
1318	0.0004683
1330	0.0004116
1342	0.0004452
1354	0.0007056
1366	0.0010668
1378	0.0014742
1390	0.0012558
1402	0.0007308
1414	0.0004284
1426	0.0004578
1438	0.0008127
1450	0.0012138
1462	0.0014931
1474	0.0014133
1486	0.0009051
1498	0.0004788
1510	0.000294
1522	0.0002142
1534	0.0002247
1546	0.0001806
1558	0.0002415
1570	0.0001722
1582	0.0001638
1594	0.000147
1606	0.0001617
1618	0.0001407
1630	0.0001449
1642	0.0001743
1654	0.0001974
1666	0.0001848
1678	0.0001575
1690	0.0001869
1702	0.000168
1714	0.0001491
1726	7.14e-05
1738	0.0001029
1750	9.45e-05
1762	0.0001239
1774	0.0001239
1786	0.000105
1798	0.0001113
1810	0.0001071
1822	9.03e-05
1834	0.000105
1846	8.61e-05
1858	9.87e-05
1870	0.0001176
1882	0.0001008
1894	9.24e-05
1906	8.61e-05
1918	0.0001113
1930	9.87e-05
1942	8.19e-05
1954	0.0001008
1966	8.19e-05
1978	6.72e-05
1990	5.46e-05
2002	7.77e-05
2014	6.09e-05
2026	7.77e-05
2038	8.19e-05
2050	8.82e-05
2062	8.61e-05
2074	0.0001029
2086	9.87e-05
2098	6.51e-05
2110	0.000105
2122	0.000105
2134	0.0001365
2146	0.0001533
2158	0.0001302
2170	0.0001113
2182	0.0001113
2194	0.0001029
2206	5.88e-05
2218	7.98e-05
2230	8.82e-05
2242	4.62e-05
2254	4.62e-05
2266	4.62e-05
2278	7.14e-05
2290	6.72e-05
2302	6.09e-05
2314	5.88e-05
2326	5.67e-05
2338	0.0001071
2350	8.82e-05
2362	9.66e-05
2374	7.35e-05
2386	7.35e-05
2398	8.4e-05
2410	0.0001008
2422	5.46e-05
2434	4.2e-05
2446	9.24e-05
2458	6.72e-05
2470	8.4e-05
2482	7.14e-05
2494	9.03e-05
2506	0.0001134
2518	6.93e-05
2530	7.77e-05
2542	6.93e-05
2554	8.4e-05
2566	8.4e-05
2578	0.0001029
2590	0.0001533
2602	0.0001722
2614	0.0001617
2626	0.0001659
2638	0.0001911
2650	0.0001533
2662	0.0001596
2674	0.000168
2686	0.000168
2698	0.0001848
2710	0.0002226
2722	0.0002898
2734	0.000294
2746	0.0003066
2758	0.0002793
2770	0.0002814
2782	0.0002919
2794	0.0003381
2806	0.0004809
2818	0.0005649
2830	0.0008064
2842	0.0012894
2854	0.0026061
2866	0.0053676
2878	0.0075705
2890	0.0082278
2902	0.0073584
2914	0.0072513
2926	0.0083832
2938	0.0108717
2950	0.0158697
2962	0.021
2974	0.0194523
2986	0.0096894
2998	0.0041769
3010	0.0014679
3022	0.0009135
3034	0.0007581
3046	0.0007581
3058	0.0006195
3070	0.000609
3082	0.0004977
3094	0.0004452
3106	0.0003906
3118	0.000273
3130	0.0003465
3142	0.0002856
3154	0.0002856
3166	0.0002856
3178	0.0002919
3190	0.0002058
3202	0.0001806
3214	0.0001827
3226	0.000168
3238	0.0001806
3250	0.0001659
3262	0.0001134
3274	0.0001386
3286	0.0001302
3298	0.0001491
3310	0.0001008
3322	0.0001218
3334	9.66e-05
3346	6.09e-05
3358	7.35e-05
3370	0.0001281
3382	0.0001176
3394	0.0001092
3406	8.19e-05
3418	9.24e-05
3430	9.45e-05
3442	6.72e-05
3454	4.83e-05
3466	0.0001218
3478	0.0001218
3490	6.51e-05
3502	6.3e-05
3514	3.78e-05
3526	6.72e-05
3538	0.0001029
3550	0.000105
3562	0.000126
3574	6.3e-05
3586	5.88e-05
3598	0.0001491
3610	0.0001239
3622	7.35e-05
3634	6.72e-05
3646	7.77e-05
3658	5.25e-05
3670	7.56e-05
3682	0.0001281
3694	0.0001323
3706	0.0001134
3718	0.0001554
3730	0.0001953
3742	0.0001659
3754	0.0001281
3766	0.0001029
3778	5.46e-05
3790	0.000105
3802	0.0001428
3814	8.4e-05
3826	0.0001197
3838	0.0001659
