Infrared Spectrum: 2-Ethylthiophene
Formula: C 6 H 8 S
CAS: 872-55-9
State: gas
Instrument: HP-GC/MS/IRD
Origin: NIST Mass Spectrometry Data Center
1/CM	ABSORBANCE
550	6.18e-05
562	8.22e-05
574	9.78e-05
586	7.32e-05
598	9.6e-06
610	4.86e-05
622	4.8e-05
634	2.58e-05
646	0.000186
658	0.0005304
670	0.0018876
682	0.0035172
694	0.0043656
706	0.0024414
718	0.0007656
730	0.0002694
742	0.0001434
754	0.0001152
766	7.32e-05
778	8.1e-05
790	0.0002046
802	0.0004884
814	0.0008082
826	0.001044
838	0.001149
850	0.0008862
862	0.000714
874	0.0002394
886	0.0001176
898	3.78e-05
910	5.34e-05
922	0.0001026
934	0.000114
946	0.0001878
958	0.0001488
970	9.84e-05
982	0.0001068
994	0.0001074
1006	0.0002412
1018	0.0004866
1030	0.0005484
1042	0.0003474
1054	0.0002598
1066	0.0002352
1078	0.0002022
1090	0.0002076
1102	0.000114
1114	7.26e-05
1126	6.96e-05
1138	0.0001062
1150	0.0001566
1162	0.000186
1174	0.0001176
1186	7.08e-05
1198	5.82e-05
1210	0.0002046
1222	0.000396
1234	0.0005004
1246	0.0003894
1258	0.0003624
1270	0.000402
1282	0.0003948
1294	0.0004254
1306	0.0004782
1318	0.0005292
1330	0.000465
1342	0.0002958
1354	0.000216
1366	0.0004134
1378	0.0004932
1390	0.0003894
1402	0.0002778
1414	0.0003342
1426	0.0005556
1438	0.0007662
1450	0.0008532
1462	0.0006846
1474	0.0005226
1486	0.000369
1498	0.0003318
1510	0.0002994
1522	0.0002598
1534	0.0001698
1546	0.0001548
1558	0.000159
1570	0.0001896
1582	0.0001932
1594	0.000135
1606	9e-05
1618	0.000108
1630	0.0001446
1642	0.0001344
1654	8.16e-05
1666	5.04e-05
1678	7.02e-05
1690	8.7e-05
1702	0.0001092
1714	0.0001002
1726	5.4e-05
1738	4.92e-05
1750	8.64e-05
1762	0.000132
1774	0.0001704
1786	0.0001332
1798	5.4e-05
1810	2.52e-05
1822	2.76e-05
1834	4.02e-05
1846	3.48e-05
1858	6.66e-05
1870	4.5e-05
1882	2.46e-05
1894	4.26e-05
1906	6.6e-05
1918	5.22e-05
1930	5.16e-05
1942	4.32e-05
1954	3.06e-05
1966	8.4e-06
1978	3.48e-05
1990	3.48e-05
2002	4.2e-05
2014	2.46e-05
2026	3.18e-05
2038	2.58e-05
2050	2.82e-05
2062	2.1e-05
2074	5.46e-05
2086	2.22e-05
2098	4.98e-05
2110	5.22e-05
2122	2.7e-05
2134	6.24e-05
2146	3.66e-05
2158	3.6e-05
2170	3.66e-05
2182	5.04e-05
2194	1.62e-05
2206	4.14e-05
2218	3.12e-05
2230	5.4e-06
2242	4.62e-05
2254	1.92e-05
2266	4.38e-05
2278	6e-05
2290	7.2e-05
2302	6e-05
2314	5.34e-05
2326	6.66e-05
2338	6.36e-05
2350	4.44e-05
2362	2.76e-05
2374	2.52e-05
2386	3.9e-05
2398	5.7e-05
2410	3.18e-05
2422	6.36e-05
2434	6e-05
2446	4.86e-05
2458	6.18e-05
2470	3.42e-05
2482	3.54e-05
2494	4.44e-05
2506	5.28e-05
2518	4.68e-05
2530	3.54e-05
2542	3.42e-05
2554	4.38e-05
2566	4.2e-05
2578	5.58e-05
2590	5.4e-05
2602	6.9e-05
2614	5.4e-05
2626	8.1e-05
2638	3.84e-05
2650	4.26e-05
2662	5.1e-05
2674	7.56e-05
2686	6.24e-05
2698	6.12e-05
2710	8.58e-05
2722	7.62e-05
2734	8.46e-05
2746	0.0001128
2758	9.3e-05
2770	0.0001332
2782	0.0001548
2794	0.0001572
2806	0.0001518
2818	0.0002358
2830	0.0002736
2842	0.000357
2854	0.0006096
2866	0.0008172
2878	0.0011208
2890	0.001314
2902	0.0013812
2914	0.001401
2926	0.001707
2938	0.0022098
2950	0.0023076
2962	0.0024882
2974	0.0032238
2986	0.0027348
2998	0.0012036
3010	0.000696
3022	0.0004554
3034	0.0003504
3046	0.0003714
3058	0.0004308
3070	0.0006864
3082	0.0008118
3094	0.0005946
3106	0.0004506
3118	0.0003006
3130	0.0002208
3142	7.38e-05
3154	0.0001272
3166	0.0001572
3178	0.0001506
3190	0.0001464
3202	0.0001218
3214	5.88e-05
3226	6.24e-05
3238	7.32e-05
3250	9.36e-05
3262	5.94e-05
3274	7.14e-05
3286	6.42e-05
3298	5.58e-05
3310	5.52e-05
3322	6.36e-05
3334	4.32e-05
3346	9.12e-05
3358	0.0001062
3370	4.2e-05
3382	5.1e-05
3394	7.68e-05
3406	6.36e-05
3418	5.94e-05
3430	5.7e-05
3442	4.26e-05
3454	6.18e-05
3466	7.44e-05
3478	8.22e-05
3490	3.78e-05
3502	2.22e-05
3514	8.76e-05
3526	6.54e-05
3538	8.52e-05
3550	1.68e-05
3562	5.82e-05
3574	5.28e-05
3586	6.66e-05
3598	9.72e-05
3610	8.46e-05
3622	9.66e-05
3634	2.58e-05
3646	3.66e-05
3658	8.58e-05
3670	2.04e-05
3682	0
3694	9.72e-05
3706	2.76e-05
3718	3.24e-05
3730	9.06e-05
3742	7.8e-05
3754	8.82e-05
3766	9.6e-05
3778	8.7e-05
3790	0.0001032
3802	0.0001044
3814	6.18e-05
3826	0.0001002
3838	0.0001074
