Infrared Spectrum: 4-Pyridine carboxaldehyde
Formula: C 6 H 5 N O
CAS: 872-85-5
State: gas
Origin: EPA-IR VAPOR PHASE LIBRARY
1/CM	ABSORBANCE
549.8	0.00533
559.445	0.00571
569.09	0.00454
578.734	0.00276
588.379	0.00158
598.024	0.00199
607.669	0.00365
617.313	0.00678
626.958	0.01298
636.603	0.032
646.248	0.03848
655.893	0.03705
665.537	0.01408
675.182	0.00975
684.827	0.00647
694.472	0.00423
704.116	0.00422
713.761	0.00444
723.406	0.00413
733.051	0.00294
742.695	0.00288
752.34	0.00376
761.985	0.00425
771.63	0.00818
781.275	0.01873
790.919	0.0306
800.564	0.06012
810.209	0.03761
819.854	0.0366
829.498	0.02873
839.143	0.02312
848.788	0.00838
858.433	0.00243
868.078	0.00108
877.722	0.0006885
887.367	0.00133
897.012	0.00205
906.657	0.00184
916.301	0.00103
925.946	0.0007558
935.591	0.0007002
945.236	0.0007108
954.88	0.0005184
964.525	0.0008608
974.17	0.00311
983.815	0.00653
993.46	0.00669
1003.1	0.00436
1012.75	0.00173
1022.39	0.0011
1032.04	0.0008841
1041.68	0.00172
1051.33	0.00462
1060.97	0.00713
1070.62	0.00733
1080.26	0.00286
1089.91	0.00234
1099.55	0.00215
1109.2	0.0019
1118.84	0.00125
1128.49	0.000915
1138.13	0.0009448
1147.78	0.00195
1157.42	0.0056
1167.07	0.01529
1176.71	0.04119
1186.36	0.06198
1196	0.06574
1205.64	0.05448
1215.29	0.04948
1224.93	0.04296
1234.58	0.01857
1244.22	0.00663
1253.87	0.00521
1263.51	0.00346
1273.16	0.00174
1282.8	0.00133
1292.45	0.00262
1302.09	0.00842
1311.74	0.02285
1321.38	0.02295
1331.03	0.01877
1340.67	0.00451
1350.32	0.00231
1359.96	0.00306
1369.61	0.00865
1379.25	0.01535
1388.9	0.02185
1398.54	0.02554
1408.18	0.02645
1417.83	0.0256
1427.47	0.01423
1437.12	0.00558
1446.76	0.00209
1456.41	0.00126
1466.05	0.00151
1475.7	0.00251
1485.34	0.00294
1494.99	0.0025
1504.63	0.00157
1514.28	0.0014
1523.92	0.00195
1533.57	0.00354
1543.21	0.0086
1552.86	0.0192
1562.5	0.02657
1572.15	0.02992
1581.79	0.01771
1591.44	0.01007
1601.08	0.00547
1610.73	0.00359
1620.37	0.00368
1630.01	0.00477
1639.66	0.00562
1649.3	0.00872
1658.95	0.01148
1668.59	0.01167
1678.24	0.01088
1687.88	0.01108
1697.53	0.01716
1707.17	0.04207
1716.82	0.15069
1726.46	0.21665
1736.11	0.22358
1745.75	0.07217
1755.4	0.02046
1765.04	0.00887
1774.69	0.00416
1784.33	0.00251
1793.98	0.00208
1803.62	0.00232
1813.27	0.00302
1822.91	0.00367
1832.55	0.00388
1842.2	0.00359
1851.84	0.00297
1861.49	0.00226
1871.13	0.00125
1880.78	0.0009093
1890.42	0.0007897
1900.07	0.00104
1909.71	0.00172
1919.36	0.00281
1929	0.00415
1938.65	0.00459
1948.29	0.00406
1957.94	0.00223
1967.58	0.0013
1977.23	0.00111
1986.87	0.00107
1996.52	0.0012
2006.16	0.00142
2015.81	0.00158
2025.45	0.00151
2035.1	0.00117
2044.74	0.0009507
2054.38	0.0008991
2064.03	0.0006557
2073.67	0.0005205
2083.32	0.0003773
2092.96	0.0002898
2102.61	0.0001636
2112.25	0.0002061
2121.9	0.0003117
2131.54	0.0004574
2141.19	0.0006209
2150.83	0.0006766
2160.48	0.0007034
2170.12	0.000481
2179.77	0.0003206
2189.41	0.0003933
2199.06	0.0003429
2208.7	0.0003497
2218.35	0.0002592
2227.99	0.0001763
2237.64	0.0001968
2247.28	0.0002379
2256.92	0.0003598
2266.57	0.0004619
2276.21	0.0005979
2285.86	0.0005863
2295.5	0.0004761
2305.15	0.0003956
2314.79	0.0002972
2324.44	0.0001823
2334.08	0.0001092
2343.73	0.0001823
2353.37	0.0003651
2363.02	0.0005992
2372.66	0.0008598
2382.31	0.0008231
2391.95	0.0007857
2401.6	0.0006593
2411.24	0.0005573
2420.89	0.0004427
2430.53	0.0004136
2440.18	0.0003156
2449.82	0.0002977
2459.47	0.0001783
2469.11	0.0001287
2478.75	0.0001701
2488.4	0.0002841
2498.04	0.0002538
2507.69	0.0003445
2517.33	0.0005044
2526.98	0.0004184
2536.62	0.0003578
2546.27	0.0003161
2555.91	0.0003691
2565.56	0.0004737
2575.2	0.0006115
2584.85	0.0007966
2594.49	0.001
2604.14	0.00127
2613.78	0.00134
2623.43	0.00143
2633.07	0.00166
2642.72	0.00165
2652.36	0.0017
2662.01	0.0019
2671.65	0.00289
2681.29	0.00578
2690.94	0.01016
2700.58	0.01217
2710.23	0.0171
2719.87	0.02547
2729.52	0.03329
2739.16	0.02911
2748.81	0.02047
2758.45	0.01027
2768.1	0.00991
2777.74	0.01406
2787.39	0.01851
2797.03	0.02936
2806.68	0.04675
2816.32	0.05303
2825.97	0.05037
2835.61	0.03007
2845.26	0.01368
2854.9	0.00692
2864.55	0.00424
2874.19	0.0032
2883.84	0.00271
2893.48	0.00258
2903.12	0.00272
2912.77	0.00294
2922.41	0.00284
2932.06	0.00248
2941.7	0.00252
2951.35	0.00285
2960.99	0.00339
2970.64	0.00392
2980.28	0.0044
2989.93	0.00438
2999.57	0.00493
3009.22	0.00637
3018.86	0.0112
3028.51	0.01769
3038.15	0.0223
3047.8	0.02567
3057.44	0.02659
3067.09	0.02784
3076.73	0.0237
3086.38	0.01994
3096.02	0.01085
3105.67	0.00479
3115.31	0.00212
3124.95	0.00129
3134.6	0.000875
3144.24	0.0006126
3153.89	0.0004976
3163.53	0.0004262
3173.18	0.0003214
3182.82	0.0002069
3192.47	0.0003399
3202.11	0.0002643
3211.76	0.0002578
3221.4	0.0003143
3231.05	0.0001927
3240.69	0.0002102
3250.34	0.0001952
3259.98	0.0001762
3269.63	0.0002799
3279.27	0.0003214
3288.92	0.0002631
3298.56	0.0002974
3308.21	0.0002347
3317.85	0.0002559
3327.49	0.0002248
3337.14	0.0004556
3346.78	0.0003001
3356.43	0.0003699
3366.07	0.0004832
3375.72	0.0007757
3385.36	0.0009741
3395.01	0.00103
3404.65	0.00133
3414.3	0.00172
3423.94	0.00295
3433.59	0.00446
3443.23	0.00473
3452.88	0.00368
3462.52	0.00137
3472.17	0.0008014
3481.81	0.0006019
3491.46	0.0003984
3501.1	0.000284
3510.75	0.0003764
3520.39	0.000303
3530.04	0.0003196
3539.68	0.0002947
3549.32	0.0001554
3558.97	0.0001628
3568.61	0.0003791
3578.26	0.0002194
3587.9	0.0001744
3597.55	0.0002321
3607.19	0.0002452
3616.84	0.0003643
3626.48	0.0002188
3636.13	0.0004252
3645.77	0.0004622
3655.42	0.000378
3665.06	0.0003928
3674.71	0.0004245
3684.35	0.0005633
3694	0.0005058
3703.64	0.0005794
3713.29	0.0005429
3722.93	0.0003387
3732.58	0.0005393
3742.22	0.00043
3751.86	0.0005429
3761.51	0.0004086
3771.15	0.0002242
3780.8	0.000236
3790.44	0.0001043
3800.09	0.0001656
3809.73	0.0002465
3819.38	0.0001628
3829.02	0.0001649
3838.67	0.0001498
3848.31	0.0002485
3857.96	0.0003065
3867.6	0.0001828
3877.25	0.0002958
3886.89	0.0003802
3896.54	0.0003109
3906.18	0.0001954
3915.83	0.0002244
3925.47	0.0002634
3935.12	0.0002707
3944.76	0.0002411
3954.41	0.0001389
3964.05	0.0002442
3973.69	0.0002209
3983.34	0.0002642
3992.98	0.0003281
