Infrared Spectrum: 5-Chloro-1-methylimidazole
Formula: C 4 H 5 Cl N 2
CAS: 872-49-1
State: gas
Origin: EPA-IR VAPOR PHASE LIBRARY
1/CM	ABSORBANCE
549.8	0.001943
559.445	0.002323
569.09	0.0018329
578.734	0.0013564
588.379	0.0014751
598.024	0.0012369
607.669	0.00089246
617.313	0.002133
626.958	0.003283
636.603	0.005393
646.248	0.008313
655.893	0.015703
665.537	0.008683
675.182	0.005833
684.827	0.005553
694.472	0.005063
704.116	0.003813
713.761	0.0016924
723.406	0.0014906
733.051	0.0015363
742.695	0.0009462
752.34	0.0015327
761.985	0.002303
771.63	0.004543
781.275	0.007613
790.919	0.012843
800.564	0.011733
810.209	0.011413
819.854	0.009453
829.498	0.005643
839.143	0.003563
848.788	0.002513
858.433	0.002323
868.078	0.002753
877.722	0.004613
887.367	0.010653
897.012	0.016103
906.657	0.014893
916.301	0.009663
925.946	0.003403
935.591	0.002473
945.236	0.0017052
954.88	0.0010982
964.525	0.0013148
974.17	0.00109
983.815	0.001391
993.46	0.0011859
1003.1	0.000461
1012.75	0.0012684
1022.39	0.001903
1032.04	0.001953
1041.68	0.003333
1051.33	0.003153
1060.97	0.003343
1070.62	0.002863
1080.26	0.002343
1089.91	0.003503
1099.55	0.006483
1109.2	0.015723
1118.84	0.017783
1128.49	0.016393
1138.13	0.005923
1147.78	0.003943
1157.42	0.0013475
1167.07	0.002983
1176.71	0.003573
1186.36	0.004153
1196	0.005523
1205.64	0.007683
1215.29	0.013753
1224.93	0.015183
1234.58	0.017943
1244.22	0.015223
1253.87	0.014313
1263.51	0.013963
1273.16	0.011673
1282.8	0.007403
1292.45	0.004853
1302.09	0.004093
1311.74	0.003903
1321.38	0.004283
1331.03	0.005753
1340.67	0.007103
1350.32	0.008613
1359.96	0.009113
1369.61	0.008293
1379.25	0.007553
1388.9	0.006073
1398.54	0.006123
1408.18	0.008693
1417.83	0.011223
1427.47	0.010823
1437.12	0.007953
1446.76	0.006693
1456.41	0.009893
1466.05	0.017533
1475.7	0.030473
1485.34	0.035133
1494.99	0.033093
1504.63	0.020703
1514.28	0.014063
1523.92	0.010733
1533.57	0.005573
1543.21	0.003873
1552.86	0.003323
1562.5	0.003523
1572.15	0.005653
1581.79	0.007483
1591.44	0.007553
1601.08	0.006363
1610.73	0.005433
1620.37	0.006323
1630.01	0.005243
1639.66	0.004273
1649.3	0.002703
1658.95	0.002243
1668.59	0.001873
1678.24	0.0018034
1687.88	0.001893
1697.53	0.001853
1707.17	0.0016621
1716.82	0.001863
1726.46	0.0017294
1736.11	0.0018294
1745.75	0.0018218
1755.4	0.0016125
1765.04	0.0014737
1774.69	0.0014144
1784.33	0.0014557
1793.98	0.0011963
1803.62	0.0014042
1813.27	0.0012605
1822.91	0.0012588
1832.55	0.0012035
1842.2	0.0012393
1851.84	0.00113
1861.49	0.0011288
1871.13	0.0010549
1880.78	0.0010569
1890.42	0.001047
1900.07	0.0011216
1909.71	0.0010485
1919.36	0.0010294
1929	0.0011246
1938.65	0.0011705
1948.29	0.0010124
1957.94	0.0010136
1967.58	0.00090683
1977.23	0.0010749
1986.87	0.000995
1996.52	0.0010093
2006.16	0.0010379
2015.81	0.0011226
2025.45	0.0010007
2035.1	0.0009413
2044.74	0.0010717
2054.38	0.000834291
2064.03	0.00089972
2073.67	0.0007669
2083.32	0.0009507
2092.96	0.0007487
2102.61	0.0009787
2112.25	0.0010579
2121.9	0.0009676
2131.54	0.0011068
2141.19	0.0011127
2150.83	0.000835989
2160.48	0.00084657
2170.12	0.0009516
2179.77	0.0010068
2189.41	0.0009701
2199.06	0.0010147
2208.7	0.0009355
2218.35	0.000837727
2227.99	0.0011579
2237.64	0.00090476
2247.28	0.00084702
2256.92	0.00089652
2266.57	0.0007779
2276.21	0.0011799
2285.86	0.000703
2295.5	0.0007515
2305.15	0.0009541
2314.79	0.0009463
2324.44	0.00057
2334.08	0.000836467
2343.73	0.0009695
2353.37	0.0010068
2363.02	0.00089327
2372.66	0.0010254
2382.31	0.0011177
2391.95	0.00086584
2401.6	0.00085151
2411.24	0.00087185
2420.89	0.0008001
2430.53	0.0009621
2440.18	0.0010294
2449.82	0.0013013
2459.47	0.0011637
2469.11	0.0013005
2478.75	0.001394
2488.4	0.0013057
2498.04	0.0010609
2507.69	0.00084444
2517.33	0.0009924
2526.98	0.00085098
2536.62	0.0008712
2546.27	0.000966
2555.91	0.000799
2565.56	0.0007609
2575.2	0.0011127
2584.85	0.0010565
2594.49	0.0009516
2604.14	0.0010586
2613.78	0.0009337
2623.43	0.0009638
2633.07	0.000718
2642.72	0.000691
2652.36	0.0009676
2662.01	0.0011906
2671.65	0.0011293
2681.29	0.0012889
2690.94	0.0014359
2700.58	0.0013618
2710.23	0.001873
2719.87	0.0013942
2729.52	0.0009674
2739.16	0.0011477
2748.81	0.000839573
2758.45	0.00085877
2768.1	0.000994
2777.74	0.0009702
2787.39	0.0015413
2797.03	0.0008065
2806.68	0.0012532
2816.32	0.0015356
2825.97	0.0012812
2835.61	0.0014761
2845.26	0.0017829
2854.9	0.0017531
2864.55	0.002853
2874.19	0.003143
2883.84	0.003953
2893.48	0.003993
2903.12	0.003853
2912.77	0.003853
2922.41	0.004673
2932.06	0.005603
2941.7	0.007843
2951.35	0.009663
2960.99	0.010183
2970.64	0.008933
2980.28	0.006683
2989.93	0.004883
2999.57	0.004033
3009.22	0.003543
3018.86	0.003083
3028.51	0.002573
3038.15	0.001983
3047.8	0.001993
3057.44	0.001893
3067.09	0.001903
3076.73	0.0015396
3086.38	0.001481
3096.02	0.0017635
3105.67	0.0013781
3115.31	0.0015019
3124.95	0.002303
3134.6	0.002463
3144.24	0.001833
3153.89	0.0013082
3163.53	0.0009635
3173.18	0.000702
3182.82	0.000577
3192.47	0.000568
3202.11	0.00089222
3211.76	0.000659
3221.4	0.000218
3231.05	0.000481
3240.69	0.0009404
3250.34	0.000444
3259.98	0.0008073
3269.63	0.000482
3279.27	0.000456
3288.92	0.000461
3298.56	0.000591
3308.21	0.000206
3317.85	0.0007
3327.49	0.0007784
3337.14	0.00046
3346.78	0.0010677
3356.43	0.0013084
3366.07	0.000696
3375.72	0.0007991
3385.36	0.00091696
3395.01	0.0007751
3404.65	0.001055
3414.3	0.0008037
3423.94	0.0008115
3433.59	0.0010997
3443.23	0.000651
3452.88	0.00084738
3462.52	0.0014637
3472.17	0.0009426
3481.81	0.0010613
3491.46	0.00054
3501.1	0.0009527
3510.75	0.00084844
3520.39	0.000697
3530.04	0.0009626
3539.68	0.000619
3549.32	0.000711
3558.97	0.00091763
3568.61	0.0007371
3578.26	0.000649
3587.9	0.0009406
3597.55	0.0010731
3607.19	0.0003
3616.84	0.000295
3626.48	0.0013115
3636.13	0.0012032
3645.77	0.00091361
3655.42	0.0011848
3665.06	0.00082474
3674.71	0.000588
3684.35	0.000544
3694	0.000653
3703.64	0.0011499
3713.29	0.0015733
3722.93	0.0010149
3732.58	0.000705
3742.22	0.00091062
3751.86	0.000642
3761.51	0.0009451
3771.15	0.0010318
3780.8	2.3e-05
3790.44	0.00088455
3800.09	0.0009012
3809.73	0.001206
3819.38	0.00017
3829.02	0.0008197
3838.67	0.0010442
3848.31	0.0010713
3857.96	0.000553
3867.6	0.000585
3877.25	0.000471
3886.89	0.00090531
3896.54	0.0007581
3906.18	0.0010609
3915.83	0.00090679
3925.47	0.0010951
3935.12	0.00041
3944.76	0.0010587
3954.41	0.0013623
3964.05	0.0013059
3973.69	0.001095
3983.34	0.0009679
3992.98	0.00085744
