Infrared Spectrum: 3-Methyl sulfolane
Formula: C 5 H 10 O 2 S
CAS: 872-93-5
State: gas
Instrument: HP-GC/MS/IRD
Origin: NIST Mass Spectrometry Data Center
1/CM	ABSORBANCE
550	0.0041464
562	0.015549
574	0.0189854
586	0.0073698
598	0.0041748
610	0.0032234
622	0.0010934
634	0.0001846
646	9.94e-05
658	0.0013632
670	0.004331
682	0.006603
694	0.0046292
706	0.0018744
718	0.0016898
730	0.0030672
742	0.0053676
754	0.0090312
766	0.013064
778	0.0130782
790	0.0076396
802	0.0026412
814	0.001136
826	0.0014626
838	0.0025276
850	0.0036636
862	0.0043878
874	0.0047712
886	0.0069012
898	0.0098264
910	0.0082076
922	0.0034506
934	0.0012496
946	0.0007668
958	0.0007384
970	0.0011786
982	0.0013064
994	0.0009088
1006	0.0009088
1018	0.0009656
1030	0.00071
1042	0.000781
1054	0.00142
1066	0.0026838
1078	0.0037062
1090	0.0050268
1102	0.012425
1114	0.0224076
1126	0.0438496
1138	0.0944726
1150	0.0941034
1162	0.0414214
1174	0.0202634
1186	0.0135752
1198	0.0127942
1210	0.0185594
1222	0.0235862
1234	0.0168838
1246	0.0101246
1258	0.0152082
1270	0.0194966
1282	0.0163584
1294	0.0148248
1306	0.0194256
1318	0.0369768
1330	0.0819624
1342	0.135099
1354	0.122234
1366	0.055948
1378	0.0171678
1390	0.0094288
1402	0.0072846
1414	0.0096276
1426	0.0105506
1438	0.0075544
1450	0.0075118
1462	0.0088892
1474	0.0065462
1486	0.0030388
1498	0.0012496
1510	0.0006532
1522	0.0004118
1534	0.0002556
1546	0.0001846
1558	0.0001136
1570	9.94e-05
1582	7.1e-05
1594	7.1e-05
1606	8.52e-05
1618	9.94e-05
1630	0.0001278
1642	0.0001278
1654	0.0001704
1666	0.0002272
1678	0.0002556
1690	0.0001846
1702	0.000213
1714	0.0001562
1726	9.94e-05
1738	4.26e-05
1750	0
1762	0
1774	4.26e-05
1786	2.84e-05
1798	1.42e-05
1810	2.84e-05
1822	2.84e-05
1834	5.68e-05
1846	5.68e-05
1858	8.52e-05
1870	0.0001562
1882	0.0002414
1894	0.0002982
1906	0.0002982
1918	0.0002698
1930	0.0002272
1942	0.000213
1954	0.0001988
1966	0.000213
1978	0.000142
1990	0.0001704
2002	0.0001704
2014	0.0001278
2026	0.0001278
2038	0.0001136
2050	9.94e-05
2062	9.94e-05
2074	0.0001278
2086	0.000213
2098	0.0002556
2110	0.0002556
2122	0.000142
2134	0.0001562
2146	0.0001704
2158	0.0001988
2170	0.0002414
2182	0.0002698
2194	0.0002982
2206	0.0003266
2218	0.0003408
2230	0.0003976
2242	0.0005112
2254	0.0006106
2266	0.0005964
2278	0.0006106
2290	0.0005538
2302	0.0004686
2314	0.0004402
2326	0.0004686
2338	0.0003692
2350	0.0003692
2362	0.0003266
2374	0.000284
2386	0.0002272
2398	0.0002982
2410	0.0004118
2422	0.000497
2434	0.0006106
2446	0.0008094
2458	0.0008804
2470	0.0008236
2482	0.0006674
2494	0.000497
2506	0.0002556
2518	0.0001136
2530	5.68e-05
2542	7.1e-05
2554	2.84e-05
2566	7.1e-05
2578	8.52e-05
2590	0.0001136
2602	0.0001704
2614	0.0002414
2626	0.0002982
2638	0.0003124
2650	0.0002272
2662	0.0001704
2674	0.0002272
2686	0.0002982
2698	0.000213
2710	0.0001562
2722	0.0001846
2734	0.0003976
2746	0.000639
2758	0.000639
2770	0.0004828
2782	0.0004544
2794	0.0005822
2806	0.00071
2818	0.0010224
2830	0.00142
2842	0.0018744
2854	0.0028258
2866	0.0059356
2878	0.01207
2890	0.0139586
2902	0.011431
2914	0.0119706
2926	0.0171394
2938	0.024708
2950	0.030672
2962	0.0416344
2974	0.044588
2986	0.0242394
2998	0.0091164
3010	0.0052114
3022	0.0028258
3034	0.0013632
3046	0.0008946
3058	0.0007242
3070	0.0005964
3082	0.0005538
3094	0.0005822
3106	0.0005112
3118	0.0005112
3130	0.0004686
3142	0.0004118
3154	0.000426
3166	0.0003976
3178	0.0004686
3190	0.0004686
3202	0.0004402
3214	0.000355
3226	0.0002698
3238	0.0002414
3250	0.0001846
3262	0.000213
3274	0.000142
3286	0.0001562
3298	0.0001704
3310	0.000142
3322	0.000213
3334	0.0001846
3346	0.0001846
3358	0.0001562
3370	0.0001988
3382	0.0001988
3394	0.000213
3406	0.0001562
3418	0.0001704
3430	9.94e-05
3442	7.1e-05
3454	0.0001136
3466	8.52e-05
3478	4.26e-05
3490	7.1e-05
3502	8.52e-05
3514	7.1e-05
3526	0.0001988
3538	0.0001846
3550	5.68e-05
3562	0.0001136
3574	0.0001136
3586	9.94e-05
3598	0.000142
3610	0.000142
3622	5.68e-05
3634	0.0001278
3646	0.0001136
3658	8.52e-05
3670	9.94e-05
3682	0.0001136
3694	0.0001278
3706	0.000142
3718	0.0001562
3730	0.0001704
3742	0.000213
3754	0.0002272
3766	0.0002414
3778	0.0001988
3790	0.000213
3802	0.0002272
3814	0.0002698
3826	0.0002982
3838	0.0002414
