Infrared Spectrum: ACETIC ACID, 3(2-CHLOROETHYL)UREIDO-
Formula: C5 H9 Cl N2 O3
CAS: 87219-18-9
State: SOLID (1 mg / 500 mg KBr DISC)
Class: COBLENTZ III
Instrument: PERKIN-ELMER 621
Sampling: TRANSMISSION
Resolution: 4
Origin: SOUTHERN RESEARCH INSTITUTE
1/CM	TRANSMITTANCE
256.332	0.403
266.812	0.4939
277.293	0.631
287.773	0.799
298.253	0.808
308.734	0.808
319.214	0.807
329.695	0.819
340.175	0.82
350.655	0.782
361.136	0.667
371.616	0.7849
382.096	0.854
392.577	0.83
403.057	0.804
413.537	0.865
424.018	0.875
434.498	0.869
444.978	0.852
455.459	0.829
465.939	0.742
476.42	0.7129
486.9	0.856
497.38	0.855
507.861	0.839
518.341	0.815
528.821	0.779
539.302	0.783
549.782	0.792
560.262	0.774
570.743	0.657
581.223	0.651
591.703	0.6259
602.184	0.705
612.664	0.677
623.145	0.613
633.625	0.5281
644.105	0.3861
654.586	0.4329
665.066	0.488
675.546	0.558
686.027	0.643
696.507	0.6869
706.987	0.796
717.468	0.847
727.948	0.868
738.428	0.865
748.909	0.877
759.389	0.868
769.87	0.835
780.35	0.906
790.83	0.91
801.311	0.91
811.791	0.908
822.271	0.904
832.752	0.899
843.232	0.886
853.712	0.852
864.193	0.764
874.673	0.795
885.153	0.77
895.634	0.747
906.114	0.727
916.595	0.626
927.075	0.57
937.555	0.585
948.036	0.657
958.516	0.795
968.996	0.838
979.477	0.858
989.957	0.863
1000.44	0.859
1010.92	0.851
1021.4	0.83
1031.88	0.828
1042.36	0.825
1052.84	0.7361
1063.32	0.765
1073.8	0.735
1084.28	0.798
1094.76	0.813
1105.24	0.813
1115.72	0.812
1126.2	0.804
1136.68	0.794
1147.16	0.778
1157.64	0.748
1168.12	0.6911
1178.6	0.567
1189.08	0.601
1199.56	0.572
1210.04	0.4801
1220.52	0.2831
1231.01	0.165
1241.49	0.361
1251.97	0.38
1262.45	0.5229
1272.93	0.4931
1283.41	0.41
1293.89	0.537
1304.37	0.535
1314.85	0.7069
1325.33	0.712
1335.81	0.752
1346.29	0.778
1356.77	0.792
1367.25	0.789
1377.73	0.748
1388.21	0.622
1398.69	0.506
1409.17	0.559
1419.65	0.4292
1430.13	0.5618
1440.61	0.782
1451.09	0.8
1461.57	0.795
1472.05	0.798
1482.53	0.786
1493.01	0.766
1503.49	0.717
1513.97	0.602
1524.46	0.445
1534.94	0.592
1545.42	0.535
1555.9	0.442
1566.38	0.325
1576.86	0.2071
1587.34	0.109
1597.82	0.109
1608.3	0.108
1618.78	0.063
1629.26	0.059
1639.74	0.2009
1650.22	0.41
1660.7	0.522
1671.18	0.477
1681.66	0.3451
1692.14	0.1001
1702.62	0.1659
1713.1	0.292
1723.58	0.414
1734.06	0.5399
1744.54	0.674
1755.02	0.703
1765.5	0.744
1775.98	0.766
1786.46	0.794
1796.94	0.821
1807.42	0.841
1817.91	0.859
1828.39	0.867
1838.87	0.876
1849.35	0.88
1859.83	0.888
1870.31	0.891
1880.79	0.891
1891.27	0.895
1901.75	0.898
1912.23	0.899
1922.71	0.901
1933.19	0.904
1943.67	0.907
1954.15	0.908
1964.63	0.91
1975.11	0.912
1985.59	0.912
1996.07	0.919
2006.55	0.921
2017.03	0.921
2027.51	0.921
2037.99	0.924
2048.47	0.924
2058.95	0.924
2069.43	0.925
2079.91	0.925
2090.39	0.924
2100.88	0.924
2111.36	0.924
2121.84	0.924
2132.32	0.928
2142.8	0.929
2153.28	0.93
2163.76	0.93
2174.24	0.93
2184.72	0.929
2195.2	0.927
2205.68	0.924
2216.16	0.92
2226.64	0.917
2237.12	0.916
2247.6	0.916
2258.08	0.916
2268.56	0.916
2279.04	0.915
2289.52	0.915
2300	0.914
2310.48	0.914
2320.96	0.912
2331.44	0.911
2341.92	0.907
2352.4	0.904
2362.88	0.903
2373.36	0.902
2383.84	0.902
2394.33	0.897
2404.81	0.893
2415.29	0.888
2425.77	0.876
2436.25	0.871
2446.73	0.859
2457.21	0.855
2467.69	0.847
2478.17	0.839
2488.65	0.832
2499.13	0.83
2509.61	0.829
2520.09	0.82
2530.57	0.804
2541.05	0.79
2551.53	0.783
2562.01	0.786
2572.49	0.785
2582.97	0.781
2593.45	0.778
2603.93	0.774
2614.41	0.77
2624.89	0.765
2635.37	0.764
2645.85	0.764
2656.33	0.764
2666.81	0.761
2677.29	0.76
2687.78	0.764
2698.26	0.761
2708.74	0.76
2719.22	0.757
2729.7	0.753
2740.18	0.742
2750.66	0.733
2761.14	0.73
2771.62	0.726
2782.1	0.721
2792.58	0.714
2803.06	0.708
2813.54	0.695
2824.02	0.678
2834.5	0.654
2844.98	0.622
2855.46	0.615
2865.94	0.608
2876.42	0.589
2886.9	0.582
2897.38	0.574
2907.86	0.566
2918.34	0.54
2928.82	0.549
2939.3	0.542
2949.78	0.481
2960.26	0.526
2970.74	0.532
2981.23	0.488
2991.71	0.514
3002.19	0.518
3012.67	0.522
3023.15	0.493
3033.63	0.49
3044.11	0.492
3054.59	0.489
3065.07	0.489
3075.55	0.489
3086.03	0.501
3096.51	0.509
3106.99	0.506
3117.47	0.498
3127.95	0.485
3138.43	0.466
3148.91	0.457
3159.39	0.476
3169.87	0.507
3180.35	0.523
3190.83	0.542
3201.31	0.552
3211.79	0.553
3222.27	0.546
3232.75	0.531
3243.23	0.515
3253.71	0.498
3264.19	0.484
3274.68	0.44
3285.16	0.367
3295.64	0.2701
3306.12	0.209
3316.6	0.256
3327.08	0.345
3337.56	0.354
3348.04	0.281
3358.52	0.207
3369	0.256
3379.48	0.378
3389.96	0.453
3400.44	0.524
3410.92	0.562
3421.4	0.597
3431.88	0.631
3442.36	0.662
3452.84	0.687
3463.32	0.701
3473.8	0.713
3484.28	0.73
3494.76	0.744
3505.24	0.76
3515.72	0.769
3526.2	0.782
3536.68	0.799
3547.16	0.808
3557.64	0.821
3568.13	0.833
3578.61	0.848
3589.09	0.863
3599.57	0.872
3610.05	0.882
3620.53	0.898
3631.01	0.904
3641.49	0.91
3651.97	0.911
3662.45	0.911
3672.93	0.911
3683.41	0.919
3693.89	0.925
3704.37	0.932
3714.85	0.932
3725.33	0.932
3735.81	0.932
3746.29	0.932
3756.77	0.932
3767.25	0.932
3777.73	0.933
3788.21	0.932
3798.69	0.932
3809.17	0.932
3819.65	0.932
3830.13	0.932
3840.61	0.93
3851.09	0.932
3861.58	0.93
3872.06	0.93
3882.54	0.932
3893.02	0.932
3903.5	0.932
3913.98	0.933
3924.46	0.933
3934.94	0.934
3945.42	0.934
3955.9	0.934
3966.38	0.934
3976.86	0.934
3987.34	0.934
3997.82	0.934
