Infrared Spectrum: 3-Chlorobenzyl alcohol
Formula: C 7 H 7 Cl O
CAS: 873-63-2
State: gas
Origin: EPA-IR VAPOR PHASE LIBRARY
1/CM	ABSORBANCE
549.9	0.002111
559.547	0.002041
569.193	0.001761
578.84	0.001931
588.486	0.002201
598.133	0.003111
607.779	0.003581
617.426	0.002831
627.072	0.001821
636.719	0.001531
646.365	0.001841
656.012	0.002191
665.658	0.003951
675.305	0.009091
684.951	0.015621
694.598	0.016221
704.245	0.010061
713.891	0.005521
723.538	0.003331
733.184	0.002791
742.831	0.002861
752.477	0.004141
762.124	0.008651
771.77	0.015511
781.417	0.018971
791.063	0.011191
800.71	0.004901
810.356	0.002921
820.003	0.003191
829.649	0.004391
839.296	0.006521
848.943	0.009561
858.589	0.011611
868.236	0.010311
877.882	0.007581
887.529	0.005441
897.175	0.003841
906.822	0.002851
916.468	0.002481
926.115	0.002521
935.761	0.002791
945.408	0.003351
955.054	0.004391
964.701	0.005851
974.347	0.006811
983.994	0.007761
993.64	0.009931
1003.29	0.013071
1012.93	0.016471
1022.58	0.019991
1032.23	0.021811
1041.87	0.019281
1051.52	0.014391
1061.17	0.012171
1070.81	0.012591
1080.46	0.012631
1090.11	0.011991
1099.75	0.009801
1109.4	0.006511
1119.05	0.004211
1128.69	0.003721
1138.34	0.003871
1147.99	0.004511
1157.63	0.005351
1167.28	0.006821
1176.92	0.009071
1186.57	0.012801
1196.22	0.017401
1205.86	0.018221
1215.51	0.013611
1225.16	0.008401
1234.8	0.005801
1244.45	0.004751
1254.1	0.004361
1263.74	0.004141
1273.39	0.004071
1283.04	0.003811
1292.68	0.003871
1302.33	0.003771
1311.98	0.003761
1321.62	0.003781
1331.27	0.004121
1340.92	0.004631
1350.56	0.005451
1360.21	0.007431
1369.86	0.010361
1379.5	0.011491
1389.15	0.010071
1398.79	0.008531
1408.44	0.008181
1418.09	0.009671
1427.73	0.012681
1437.38	0.011401
1447.03	0.006391
1456.67	0.006691
1466.32	0.009691
1475.97	0.010651
1485.61	0.008101
1495.26	0.004371
1504.91	0.002151
1514.55	0.001611
1524.2	0.001481
1533.85	0.001601
1543.49	0.002051
1553.14	0.003351
1562.79	0.006451
1572.43	0.011241
1582.08	0.013061
1591.73	0.011851
1601.37	0.009281
1611.02	0.004341
1620.67	0.001611
1630.31	0.0009922
1639.96	0.0008214
1649.6	0.0008418
1659.25	0.0008785
1668.9	0.0010684
1678.54	0.0010781
1688.19	0.0008198
1697.84	0.0006471
1707.48	0.0006501
1717.13	0.0006412
1726.78	0.0008104
1736.42	0.0008751
1746.07	0.0010532
1755.72	0.0011363
1765.36	0.0011577
1775.01	0.0010377
1784.66	0.0009084
1794.3	0.0008285
1803.95	0.0007
1813.6	0.0005525
1823.24	0.0005103
1832.89	0.0005513
1842.54	0.0006711
1852.18	0.0009935
1861.83	0.0011805
1871.47	0.0009083
1881.12	0.0005441
1890.77	0.00043075
1900.41	0.00039786
1910.06	0.0005532
1919.71	0.0007647
1929.35	0.0009613
1939	0.000911
1948.65	0.0005951
1958.29	0.00042036
1967.94	0.0003377
1977.59	0.0003572
1987.23	0.000281
1996.88	0.0003457
2006.53	0.00037283
2016.17	0.00039015
2025.82	0.00040017
2035.47	0.00039408
2045.11	0.00043745
2054.76	0.0003398
2064.41	0.00037869
2074.05	0.0003472
2083.7	0.0002837
2093.35	0.000245
2102.99	0.000221
2112.64	0.000135
2122.28	0.000124
2131.93	0.000165
2141.58	0.000154
2151.22	0.000147
2160.87	0.000157
2170.52	0.000165
2180.16	0.000203
2189.81	0.000166
2199.46	0.000163
2209.1	0.000156
2218.75	0.000171
2228.4	0.000202
2238.04	0.000186
2247.69	0.000164
2257.34	0.000162
2266.98	0.000184
2276.63	0.000137
2286.28	0.000145
2295.92	0.000212
2305.57	0.000209
2315.22	0.000244
2324.86	0.00026
2334.51	0.0003191
2344.16	0.000271
2353.8	0.000193
2363.45	0.000216
2373.09	0.000248
2382.74	0.000225
2392.39	0.000273
2402.03	0.000225
2411.68	0.000182
2421.33	0.000208
2430.97	0.000185
2440.62	0.00013
2450.27	0.000119
2459.91	0.000168
2469.56	0.000137
2479.21	0.000124
2488.85	0.000131
2498.5	0.000133
2508.15	0.00012
2517.79	0.000152
2527.44	0.000111
2537.09	0.0001
2546.73	0.000114
2556.38	8.3e-05
2566.03	4.7e-05
2575.67	3.4e-05
2585.32	8.7e-05
2594.96	0.000108
2604.61	5.7e-05
2614.26	7.2e-05
2623.9	7.8e-05
2633.55	4.8e-05
2643.2	0.000142
2652.84	0.000133
2662.49	0.000129
2672.14	0.000192
2681.78	0.000166
2691.43	0.000125
2701.08	0.000165
2710.72	0.000202
2720.37	0.000222
2730.02	0.0002874
2739.66	0.000252
2749.31	0.000353
2758.96	0.0003466
2768.6	0.00047784
2778.25	0.0005676
2787.9	0.0006834
2797.54	0.0006756
2807.19	0.0009444
2816.84	0.001102
2826.48	0.001521
2836.13	0.002051
2845.77	0.002951
2855.42	0.004021
2865.07	0.005351
2874.71	0.007411
2884.36	0.008921
2894.01	0.008481
2903.65	0.007301
2913.3	0.006931
2922.95	0.007381
2932.59	0.007591
2942.24	0.007081
2951.89	0.006061
2961.53	0.004881
2971.18	0.003431
2980.83	0.002461
2990.47	0.001631
3000.12	0.0012565
3009.77	0.0013407
3019.41	0.001971
3029.06	0.002691
3038.71	0.002931
3048.35	0.003281
3058	0.004201
3067.64	0.005391
3077.29	0.005831
3086.94	0.004451
3096.58	0.002531
3106.23	0.001421
3115.88	0.0005528
3125.52	0.00040475
3135.17	4.1e-05
3144.82	0.000136
3154.46	0.0003316
3164.11	0.000175
3173.76	0.0003375
3183.4	0.000171
3193.05	0.0002871
3202.7	0.00047371
3212.34	0.0003272
3221.99	0.0003689
3231.64	0.0005441
3241.28	0.000244
3250.93	0.0003476
3260.58	0.00040838
3270.22	0.000381629
3279.87	0.0006087
3289.52	0.0005553
3299.16	0.00047748
3308.81	0.0005852
3318.45	0.0005067
3328.1	0.0006382
3337.75	0.00041371
3347.39	0.0008483
3357.04	0.0006705
3366.69	0.0008613
3376.33	0.0009078
3385.98	0.0007123
3395.63	0.0008645
3405.27	0.0009301
3414.92	0.0009493
3424.57	0.000834
3434.21	0.0010357
3443.86	0.0008894
3453.51	0.0008249
3463.15	0.000983
3472.8	0.0009382
3482.45	0.0008509
3492.09	0.0010569
3501.74	0.0009568
3511.39	0.0010551
3521.03	0.0009144
3530.68	0.000861
3540.33	0.0008455
3549.97	0.0009376
3559.62	0.0010272
3569.26	0.0009976
3578.91	0.0010054
3588.56	0.0010478
3598.2	0.0012195
3607.85	0.0013156
3617.5	0.001661
3627.14	0.002381
3636.79	0.003611
3646.44	0.005611
3656.08	0.006621
3665.73	0.006181
3675.38	0.005101
3685.02	0.003451
3694.67	0.002421
3704.32	0.001811
3713.96	0.0013711
3723.61	0.0010087
3733.26	0.0009153
3742.9	0.0009831
3752.55	0.0008667
3762.2	0.0008819
3771.84	0.0008307
3781.49	0.0008496
3791.13	0.0008623
3800.78	0.000829
3810.43	0.0008102
3820.07	0.0007337
3829.72	0.0007657
3839.37	0.0007621
3849.01	0.0007563
3858.66	0.0008593
3868.31	0.0007759
3877.95	0.0007799
3887.6	0.0006828
3897.25	0.0008509
3906.89	0.0007414
3916.54	0.000664
3926.19	0.0007882
3935.83	0.0005834
3945.48	0.0006721
3955.13	0.00047959
3964.77	0.0005961
3974.42	0.0004876
3984.07	0.000557
3993.71	0.0005541
