Infrared Spectrum: p-Aminobenzonitrile
Formula: C 7 H 6 N 2
CAS: 873-74-5
State: gas
Origin: EPA-IR VAPOR PHASE LIBRARY
1/CM	ABSORBANCE
549.8	0.01188
559.445	0.00762
569.09	0.00641
578.734	0.0068
588.379	0.00652
598.024	0.00595
607.669	0.00573
617.313	0.00619
626.958	0.00637
636.603	0.00722
646.248	0.00991
655.893	0.01764
665.537	0.02286
675.182	0.02064
684.827	0.01434
694.472	0.01076
704.116	0.00939
713.761	0.00801
723.406	0.00734
733.051	0.00799
742.695	0.0083
752.34	0.00733
761.985	0.00628
771.63	0.00557
781.275	0.006
790.919	0.00705
800.564	0.00954
810.209	0.01484
819.854	0.02067
829.498	0.02646
839.143	0.01815
848.788	0.01098
858.433	0.00581
868.078	0.00369
877.722	0.00307
887.367	0.00275
897.012	0.00229
906.657	0.00262
916.301	0.00299
925.946	0.00299
935.591	0.00304
945.236	0.00245
954.88	0.00245
964.525	0.00268
974.17	0.00241
983.815	0.00212
993.46	0.00193
1003.1	0.00167
1012.75	0.00161
1022.39	0.00157
1032.04	0.00137
1041.68	0.00155
1051.33	0.00176
1060.97	0.00235
1070.62	0.00239
1080.26	0.00246
1089.91	0.00199
1099.55	0.00261
1109.2	0.00355
1118.84	0.00378
1128.49	0.0033
1138.13	0.00315
1147.78	0.00281
1157.42	0.00442
1167.07	0.0142
1176.71	0.01471
1186.36	0.00826
1196	0.00302
1205.64	0.00123
1215.29	0.000816
1224.93	0.00149
1234.58	0.00113
1244.22	0.00172
1253.87	0.00239
1263.51	0.0059
1273.16	0.01607
1282.8	0.03005
1292.45	0.03434
1302.09	0.02039
1311.74	0.00592
1321.38	0.00167
1331.03	0.00109
1340.67	0.00107
1350.32	0.00119
1359.96	0.00104
1369.61	0.0007331
1379.25	0.0006445
1388.9	0.0008268
1398.54	0.0009751
1408.18	0.00107
1417.83	0.00112
1427.47	0.00118
1437.12	0.0012
1446.76	0.00106
1456.41	0.00121
1466.05	0.00178
1475.7	0.00252
1485.34	0.00347
1494.99	0.00871
1504.63	0.03219
1514.28	0.04612
1523.92	0.03259
1533.57	0.00599
1543.21	0.00342
1552.86	0.00306
1562.5	0.00323
1572.15	0.00486
1581.79	0.00841
1591.44	0.01413
1601.08	0.02696
1610.73	0.04392
1620.37	0.07088
1630.01	0.07014
1639.66	0.03731
1649.3	0.01332
1658.95	0.00734
1668.59	0.00548
1678.24	0.0041
1687.88	0.00292
1697.53	0.00267
1707.17	0.00269
1716.82	0.00252
1726.46	0.00209
1736.11	0.00155
1745.75	0.00137
1755.4	0.00131
1765.04	0.00101
1774.69	0.0006682
1784.33	0.0004797
1793.98	0.0004902
1803.62	0.0007027
1813.27	0.0007641
1822.91	0.0007192
1832.55	0.0006982
1842.2	0.0007856
1851.84	0.0009513
1861.49	0.00133
1871.13	0.00165
1880.78	0.00221
1890.42	0.00205
1900.07	0.00186
1909.71	0.00112
1919.36	0.000879
1929	0.0009475
1938.65	0.00104
1948.29	0.00114
1957.94	0.00114
1967.58	0.00108
1977.23	0.0009332
1986.87	0.0009525
1996.52	0.0009233
2006.16	0.00109
2015.81	0.00114
2025.45	0.00122
2035.1	0.00118
2044.74	0.000999
2054.38	0.0008654
2064.03	0.0007752
2073.67	0.0007958
2083.32	0.0008313
2092.96	0.0007911
2102.61	0.0007336
2112.25	0.0007479
2121.9	0.0007975
2131.54	0.0007469
2141.19	0.0005561
2150.83	0.0005733
2160.48	0.0005353
2170.12	0.0007481
2179.77	0.0009283
2189.41	0.00113
2199.06	0.00179
2208.7	0.00437
2218.35	0.01045
2227.99	0.01623
2237.64	0.0133
2247.28	0.00349
2256.92	0.0009199
2266.57	0.0005377
2276.21	0.0006441
2285.86	0.0007312
2295.5	0.0007917
2305.15	0.0008738
2314.79	0.0008301
2324.44	0.0007836
2334.08	0.0007502
2343.73	0.000965
2353.37	0.0008567
2363.02	0.0008242
2372.66	0.0007635
2382.31	0.0006736
2391.95	0.0006676
2401.6	0.0006746
2411.24	0.0006902
2420.89	0.0006502
2430.53	0.0007684
2440.18	0.0008383
2449.82	0.0007418
2459.47	0.0007183
2469.11	0.0006313
2478.75	0.0005753
2488.4	0.0004682
2498.04	0.0004487
2507.69	0.0005171
2517.33	0.0004992
2526.98	0.0005972
2536.62	0.0006236
2546.27	0.0006911
2555.91	0.0009843
2565.56	0.00131
2575.2	0.00148
2584.85	0.00134
2594.49	0.00105
2604.14	0.000984
2613.78	0.0009191
2623.43	0.00102
2633.07	0.00101
2642.72	0.00109
2652.36	0.0007387
2662.01	0.0005817
2671.65	0.0004676
2681.29	0.0005346
2690.94	0.0005444
2700.58	0.0005247
2710.23	0.0004546
2719.87	0.0005044
2729.52	0.0004339
2739.16	0.0004862
2748.81	0.0004255
2758.45	0.0004577
2768.1	0.0004967
2777.74	0.0004673
2787.39	0.0005059
2797.03	0.0004701
2806.68	0.0003571
2816.32	0.0004318
2825.97	0.000241
2835.61	0.0002908
2845.26	0.0004058
2854.9	0.0004604
2864.55	0.0004062
2874.19	0.0005107
2883.84	0.0005454
2893.48	0.0007185
2903.12	0.0007478
2912.77	0.0007408
2922.41	0.0006697
2932.06	0.0005332
2941.7	0.0006387
2951.35	0.0004431
2960.99	0.0004159
2970.64	0.0003745
2980.28	0.0004575
2989.93	0.000927
2999.57	0.00143
3009.22	0.00219
3018.86	0.00244
3028.51	0.00357
3038.15	0.0069
3047.8	0.00736
3057.44	0.00467
3067.09	0.00299
3076.73	0.0028
3086.38	0.00237
3096.02	0.00216
3105.67	0.0018
3115.31	0.00168
3124.95	0.00134
3134.6	0.00123
3144.24	0.0006581
3153.89	0.0006247
3163.53	0.0005285
3173.18	0.0004105
3182.82	0.0006165
3192.47	0.0008619
3202.11	0.00109
3211.76	0.00158
3221.4	0.00159
3231.05	0.00142
3240.69	0.00109
3250.34	0.0007361
3259.98	0.0006408
3269.63	0.0004658
3279.27	0.0003212
3288.92	0.0005171
3298.56	0.000337
3308.21	0.000425
3317.85	0.0005059
3327.49	0.0004949
3337.14	0.0005819
3346.78	0.0007227
3356.43	0.0009291
3366.07	0.0009444
3375.72	0.00142
3385.36	0.00188
3395.01	0.00341
3404.65	0.00569
3414.3	0.00956
3423.94	0.01142
3433.59	0.01016
3443.23	0.00705
3452.88	0.00361
3462.52	0.00147
3472.17	0.00161
3481.81	0.00234
3491.46	0.00316
3501.1	0.00402
3510.75	0.00462
3520.39	0.004
3530.04	0.00351
3539.68	0.00269
3549.32	0.00182
3558.97	0.0007334
3568.61	0.0005716
3578.26	0.0003933
3587.9	0.0002318
3597.55	0.000291
3607.19	0.0003055
3616.84	0.0001961
3626.48	0.0002267
3636.13	0.0002453
3645.77	0.0004398
3655.42	0.0003275
3665.06	0.0003059
3674.71	0.0003572
3684.35	0.0003266
3694	0.0002404
3703.64	0.0002227
3713.29	0.0003835
3722.93	0.0002895
3732.58	0.0002468
3742.22	0.000253
3751.86	0.0004928
3761.51	0.0004319
3771.15	0.0003647
3780.8	0.0003243
3790.44	0.0004864
3800.09	0.0003365
3809.73	0.0007758
3819.38	0.0006189
3829.02	0.0008491
3838.67	0.00118
3848.31	0.0012
3857.96	0.00128
3867.6	0.000805
3877.25	0.0006739
3886.89	0.0007271
3896.54	0.0005217
3906.18	0.0004383
3915.83	0.0005603
3925.47	0.0004559
3935.12	0.0006256
3944.76	0.0006114
3954.41	0.0006882
3964.05	0.0003634
3973.69	0.0002036
3983.34	0.0005191
3992.98	0.0004789
