Infrared Spectrum: 3,3,5-Trimethylcyclohexanone
Formula: C 9 H 16 O
CAS: 873-94-9
State: gas
Instrument: HP-GC/MS/IRD
Origin: NIST Mass Spectrometry Data Center
1/CM	ABSORBANCE
550	0.000899
562	0.0003069
574	0.0002821
586	0.0001178
598	0.0001488
610	0.0001922
622	0.000124
634	0.0001767
646	0.0001302
658	4.96e-05
670	8.68e-05
682	9.3e-05
694	4.96e-05
706	5.58e-05
718	0
730	8.99e-05
742	7.13e-05
754	8.37e-05
766	0.0001178
778	0.0001147
790	9.3e-05
802	0.0002325
814	0.0003348
826	0.0004557
838	0.0004278
850	0.0002914
862	0.0001953
874	0.0003689
886	0.0005394
898	0.0004061
910	0.0003317
922	0.0003131
934	0.0002542
946	0.0001581
958	0.0001457
970	0.0001922
982	0.0002604
994	0.0001798
1006	0.0001829
1018	0.0001767
1030	0.0001643
1042	0.0002356
1054	0.0003627
1066	0.0008401
1078	0.0015748
1090	0.0012245
1102	0.0004309
1114	0.000372
1126	0.0004309
1138	0.0005332
1150	0.0006169
1162	0.0006479
1174	0.0008277
1186	0.001116
1198	0.0014849
1210	0.0030163
1222	0.0049817
1234	0.0041137
1246	0.0028303
1258	0.0046097
1270	0.005983
1282	0.0036549
1294	0.0020863
1306	0.0019778
1318	0.0016244
1330	0.0016213
1342	0.0021793
1354	0.0027838
1366	0.0031775
1378	0.0030876
1390	0.0024924
1402	0.001612
1414	0.0020181
1426	0.0027218
1438	0.0023002
1450	0.0030876
1462	0.0040672
1474	0.0028582
1486	0.001209
1498	0.0004774
1510	0.0002883
1522	0.000217
1534	0.0002418
1546	0.0001984
1558	0.0001798
1570	0.000217
1582	0.0002325
1594	0.0002852
1606	0.0003193
1618	0.0003689
1630	0.0005022
1642	0.0006727
1654	0.000806
1666	0.0009734
1678	0.0013237
1690	0.0021204
1702	0.0044113
1714	0.012493
1726	0.0240622
1738	0.0201996
1750	0.0081375
1762	0.0039029
1774	0.0017918
1786	0.0008277
1798	0.0005859
1810	0.0004836
1822	0.0003844
1834	0.0002697
1846	0.0001736
1858	0.000155
1870	0.0001581
1882	0.0001395
1894	0.0001271
1906	0.0001612
1918	0.0001116
1930	9.3e-05
1942	6.2e-05
1954	4.34e-05
1966	5.58e-05
1978	7.13e-05
1990	5.89e-05
2002	5.89e-05
2014	5.58e-05
2026	6.82e-05
2038	6.51e-05
2050	8.68e-05
2062	9.61e-05
2074	9.61e-05
2086	8.37e-05
2098	8.99e-05
2110	6.82e-05
2122	5.27e-05
2134	6.82e-05
2146	5.89e-05
2158	6.2e-05
2170	5.27e-05
2182	4.96e-05
2194	5.58e-05
2206	4.34e-05
2218	4.03e-05
2230	3.72e-05
2242	3.41e-05
2254	3.1e-05
2266	1.55e-05
2278	0
2290	2.79e-05
2302	1.24e-05
2314	3.41e-05
2326	2.79e-05
2338	1.24e-05
2350	2.17e-05
2362	1.24e-05
2374	3.1e-06
2386	0
2398	1.55e-05
2410	2.17e-05
2422	4.65e-05
2434	4.34e-05
2446	3.41e-05
2458	9.3e-06
2470	2.79e-05
2482	3.72e-05
2494	1.24e-05
2506	2.48e-05
2518	2.48e-05
2530	5.27e-05
2542	3.41e-05
2554	4.96e-05
2566	1.55e-05
2578	3.1e-05
2590	3.41e-05
2602	4.96e-05
2614	9.3e-05
2626	7.75e-05
2638	0.0001054
2650	9.3e-05
2662	0.0001116
2674	0.0001054
2686	0.0001271
2698	0.0001426
2710	0.0001953
2722	0.0002914
2734	0.0003689
2746	0.0003937
2758	0.0003286
2770	0.00031
2782	0.0003627
2794	0.000496
2806	0.0007812
2818	0.001302
2830	0.0023591
2842	0.0034565
2854	0.0036549
2866	0.0052049
2878	0.0085715
2890	0.0091171
2902	0.0108624
2914	0.0152737
2926	0.0138353
2938	0.0120931
2950	0.0175088
2962	0.031
2974	0.0205127
2986	0.0049104
2998	0.0016523
3010	0.0008928
3022	0.0005549
3034	0.0004588
3046	0.000434
3058	0.0003937
3070	0.0003534
3082	0.0003038
3094	0.0002883
3106	0.000248
3118	0.000279
3130	0.0002449
3142	0.0002201
3154	0.0002077
3166	0.0002418
3178	0.0002449
3190	0.0003224
3202	0.0002356
3214	0.0001767
3226	0.0001147
3238	9.3e-05
3250	8.37e-05
3262	5.58e-05
3274	3.1e-05
3286	2.17e-05
3298	1.24e-05
3310	4.03e-05
3322	5.89e-05
3334	6.82e-05
3346	7.44e-05
3358	6.82e-05
3370	9.92e-05
3382	0.0001178
3394	0.000124
3406	0.0001457
3418	0.0002511
3430	0.0003627
3442	0.0003875
3454	0.0003348
3466	0.0002418
3478	0.0001395
3490	0.000124
3502	5.27e-05
3514	7.13e-05
3526	4.65e-05
3538	4.03e-05
3550	1.86e-05
3562	2.48e-05
3574	0
3586	4.96e-05
3598	4.96e-05
3610	1.55e-05
3622	2.48e-05
3634	3.72e-05
3646	2.17e-05
3658	4.96e-05
3670	1.24e-05
3682	3.41e-05
3694	1.24e-05
3706	1.86e-05
3718	4.96e-05
3730	2.48e-05
3742	1.86e-05
3754	4.34e-05
3766	5.58e-05
3778	5.27e-05
3790	4.65e-05
3802	9.92e-05
3814	9.92e-05
3826	7.44e-05
3838	8.06e-05
