Infrared Spectrum: 2-Pyridinealdoxime
Formula: C 6 H 6 N 2 O
CAS: 873-69-8
State: gas
Origin: EPA-IR VAPOR PHASE LIBRARY
1/CM	ABSORBANCE
549.8	0.00129
559.445	0.0010409
569.09	0.0010651
578.734	0.001105
588.379	0.00118
598.024	0.0016
607.669	0.00275
617.313	0.00332
626.958	0.00368
636.603	0.00166
646.248	0.00339
655.893	0.00605
665.537	0.00982
675.182	0.00837
684.827	0.00446
694.472	0.00374
704.116	0.0035
713.761	0.00268
723.406	0.0042
733.051	0.0066
742.695	0.0097
752.34	0.0092
761.985	0.01014
771.63	0.01144
781.275	0.00859
790.919	0.00539
800.564	0.00278
810.209	0.00169
819.854	0.0011126
829.498	0.0009768
839.143	0.0009111
848.788	0.00143
858.433	0.00476
868.078	0.0136
877.722	0.01581
887.367	0.0062
897.012	0.00335
906.657	0.00256
916.301	0.00358
925.946	0.00676
935.591	0.01513
945.236	0.03081
954.88	0.03948
964.525	0.02813
974.17	0.00696
983.815	0.00491
993.46	0.00421
1003.1	0.0028
1012.75	0.00165
1022.39	0.00156
1032.04	0.0016
1041.68	0.00197
1051.33	0.00206
1060.97	0.00151
1070.62	0.0011006
1080.26	0.00217
1089.91	0.00288
1099.55	0.0024
1109.2	0.00118
1118.84	0.0005131
1128.49	0.0007042
1138.13	0.00179
1147.78	0.0023
1157.42	0.0015
1167.07	0.0003889
1176.71	0.0003509
1186.36	0.0002486
1196	0.0003989
1205.64	0.0002886
1215.29	0.0006798
1224.93	0.00157
1234.58	0.00425
1244.22	0.00809
1253.87	0.01543
1263.51	0.01848
1273.16	0.0114
1282.8	0.00323
1292.45	0.00258
1302.09	0.00187
1311.74	0.000696
1321.38	0.0006173
1331.03	0.0006512
1340.67	0.0006512
1350.32	0.0007148
1359.96	0.0009011
1369.61	0.00115
1379.25	0.00208
1388.9	0.0044
1398.54	0.00507
1408.18	0.00343
1417.83	0.00281
1427.47	0.00606
1437.12	0.00735
1446.76	0.00495
1456.41	0.00469
1466.05	0.01078
1475.7	0.01077
1485.34	0.00416
1494.99	0.00128
1504.63	0.0010318
1514.28	0.0008084
1523.92	0.000702
1533.57	0.0007523
1543.21	0.00146
1552.86	0.00289
1562.5	0.00596
1572.15	0.01014
1581.79	0.01196
1591.44	0.0096
1601.08	0.00438
1610.73	0.00181
1620.37	0.00139
1630.01	0.0009747
1639.66	0.0007381
1649.3	0.0007055
1658.95	0.0006991
1668.59	0.0006186
1678.24	0.0005124
1687.88	0.0005631
1697.53	0.0005345
1707.17	0.0005335
1716.82	0.0004688
1726.46	0.0004076
1736.11	0.0004059
1745.75	0.0003556
1755.4	0.0003365
1765.04	0.0004013
1774.69	0.0004299
1784.33	0.0003278
1793.98	0.0003306
1803.62	0.0002743
1813.27	0.0003548
1822.91	0.0005033
1832.55	0.0005813
1842.2	0.0006974
1851.84	0.0007482
1861.49	0.0009436
1871.13	0.00119
1880.78	0.00128
1890.42	0.0011311
1900.07	0.0011041
1909.71	0.0010776
1919.36	0.0009087
1929	0.0007097
1938.65	0.000638
1948.29	0.0006452
1957.94	0.0006879
1967.58	0.0006418
1977.23	0.0005762
1986.87	0.0003607
1996.52	0.0002505
2006.16	0.0001872
2015.81	0.0002744
2025.45	0.0002479
2035.1	0.00022914
2044.74	0.0002833
2054.38	0.0003
2064.03	0.0002872
2073.67	0.0002989
2083.32	0.0002766
2092.96	0.00023282
2102.61	0.00021693
2112.25	0.00022044
2121.9	0.00022322
2131.54	0.00019655
2141.19	0.00019773
2150.83	0.00018131
2160.48	0.00020194
2170.12	0.0002444
2179.77	0.000329
2189.41	0.0003132
2199.06	0.00020243
2208.7	0.0002791
2218.35	0.0002979
2227.99	0.0002847
2237.64	0.000305
2247.28	0.00020163
2256.92	0.0003093
2266.57	0.0002861
2276.21	0.0003179
2285.86	0.0003541
2295.5	0.0004877
2305.15	0.0003761
2314.79	0.0002524
2324.44	0.0003285
2334.08	0.0003386
2343.73	0.0003533
2353.37	0.000383
2363.02	0.0003045
2372.66	0.00023129
2382.31	0.0001794
2391.95	0.00020082
2401.6	0.0002332
2411.24	0.0002736
2420.89	0.00021514
2430.53	0.0002914
2440.18	0.0003057
2449.82	0.0003429
2459.47	0.0002791
2469.11	0.0002873
2478.75	0.0003385
2488.4	0.000328
2498.04	0.0004555
2507.69	0.0004048
2517.33	0.0003641
2526.98	0.0003461
2536.62	0.0003355
2546.27	0.000317
2555.91	0.0002643
2565.56	0.0002758
2575.2	0.000373
2584.85	0.0003316
2594.49	0.0003216
2604.14	0.000287
2613.78	0.0003109
2623.43	0.000371
2633.07	0.0004806
2642.72	0.0006672
2652.36	0.0005656
2662.01	0.0004824
2671.65	0.00023815
2681.29	0.0002654
2690.94	0.0002802
2700.58	0.00021677
2710.23	0.0002523
2719.87	0.00013427
2729.52	0.00022285
2739.16	0.00017458
2748.81	0.00020787
2758.45	0.0002863
2768.1	0.0003163
2777.74	0.0003721
2787.39	0.000375
2797.03	0.0003866
2806.68	0.0002592
2816.32	0.0003058
2825.97	0.00022345
2835.61	0.0003732
2845.26	0.0003211
2854.9	0.0003399
2864.55	0.0003947
2874.19	0.0004001
2883.84	0.0003659
2893.48	0.0003622
2903.12	0.0003893
2912.77	0.0003587
2922.41	0.0004397
2932.06	0.0007028
2941.7	0.0007393
2951.35	0.0005303
2960.99	0.0006076
2970.64	0.0008817
2980.28	0.00147
2989.93	0.00197
2999.57	0.00192
3009.22	0.00222
3018.86	0.00299
3028.51	0.00338
3038.15	0.00309
3047.8	0.00385
3057.44	0.00533
3067.09	0.00758
3076.73	0.00686
3086.38	0.00464
3096.02	0.00258
3105.67	0.00141
3115.31	0.0008646
3124.95	0.0008377
3134.6	0.0006994
3144.24	0.0007219
3153.89	0.0004235
3163.53	0.00028
3173.18	0.0003858
3182.82	0.0003734
3192.47	0.000272
3202.11	0.00018638
3211.76	0.0002811
3221.4	0.0002658
3231.05	0.0002832
3240.69	0.0005563
3250.34	0.000501
3259.98	0.0004506
3269.63	0.0003149
3279.27	0.00022694
3288.92	0.00023258
3298.56	0.00019367
3308.21	0.00023268
3317.85	0.0003375
3327.49	0.0003614
3337.14	0.0002676
3346.78	9.22e-05
3356.43	0.000144979
3366.07	0.00018501
3375.72	0.0001084
3385.36	0.00013485
3395.01	0.0002853
3404.65	0.0001033
3414.3	0.00016909
3423.94	0.0002246
3433.59	0.0001528
3443.23	0.0002881
3452.88	0.0003241
3462.52	0.0003825
3472.17	0.0003421
3481.81	0.0003498
3491.46	0.0004028
3501.1	0.0002624
3510.75	0.0002723
3520.39	0.00017715
3530.04	0.00022423
3539.68	0.000376
3549.32	0.0005018
3558.97	0.0006499
3568.61	0.0006334
3578.26	0.0006344
3587.9	0.0006333
3597.55	0.0010711
3607.19	0.00229
3616.84	0.00571
3626.48	0.01352
3636.13	0.02974
3645.77	0.02498
3655.42	0.00886
3665.06	0.00171
3674.71	0.0006959
3684.35	0.000491
3694	0.0005381
3703.64	0.0005673
3713.29	0.0007753
3722.93	0.0007326
3732.58	0.0004585
3742.22	0.0004087
3751.86	0.0004336
3761.51	0.0002723
3771.15	0.0004017
3780.8	0.00018699
3790.44	0.0003011
3800.09	0.0004114
3809.73	0.0002944
3819.38	0.00015148
3829.02	0.0003276
3838.67	0.00013297
3848.31	0.00021247
3857.96	0.0003874
3867.6	0.0002666
3877.25	0.00023616
3886.89	6.29e-05
3896.54	0.00018756
3906.18	0.0002467
3915.83	0.0002579
3925.47	0.0004127
3935.12	0.0006201
3944.76	0.0002529
3954.41	0.0003041
3964.05	0.0004521
3973.69	0.00023488
3983.34	0.0003915
3992.98	0.0004343
