Infrared Spectrum: 1,3-PROPANEDIOL, 2,2-DIMETHYL-, CYCLIC HYDROGEN PHOSPHATE
Formula: C5 H11 O4 P
CAS: 873-99-4
State: SOLID (KBr PELLET)
Melting point: 189-192 C
Class: COBLENTZ
Instrument: Not specified, most likely a prism, grating, or hybrid spectrometer.
Sampling: TRANSMISSION
Resolution: 4
Origin: TENNESSEE EASTMAN COMPANY, RESEARCH LABORATORIES
MICROMETERS	TRANSMITTANCE
2.021	0.283
2.06098	0.29
2.10095	0.303
2.14093	0.327
2.18091	0.335
2.22089	0.353
2.26086	0.365
2.30084	0.382
2.34082	0.398
2.38079	0.409
2.42077	0.429
2.46075	0.439
2.50073	0.45
2.5407	0.462
2.58068	0.469
2.62066	0.479
2.66063	0.49
2.70061	0.507
2.74059	0.512
2.78057	0.515
2.82054	0.507
2.86052	0.475
2.9005	0.407
2.94047	0.348
2.98045	0.33
3.02043	0.322
3.06041	0.32
3.10038	0.333
3.14036	0.367
3.18034	0.41
3.22031	0.457
3.26029	0.502
3.30027	0.539
3.34025	0.517
3.38022	0.465
3.4202	0.535
3.46018	0.559
3.50015	0.632
3.54013	0.649
3.58011	0.664
3.62009	0.671
3.66006	0.679
3.70004	0.689
3.74002	0.699
3.77999	0.706
3.81997	0.716
3.85995	0.726
3.89993	0.732
3.9399	0.741
3.97988	0.744
4.01986	0.747
4.05983	0.749
4.09981	0.751
4.13979	0.751
4.17977	0.746
4.21974	0.741
4.25972	0.727
4.2997	0.724
4.33967	0.724
4.37965	0.742
4.41963	0.746
4.45961	0.744
4.49958	0.739
4.53956	0.739
4.57954	0.747
4.61951	0.751
4.65949	0.754
4.69947	0.762
4.73945	0.769
4.77942	0.772
4.8194	0.779
4.85938	0.787
4.89935	0.787
4.93933	0.789
4.97931	0.794
5.01929	0.799
5.05926	0.797
5.09924	0.799
5.13922	0.799
5.17919	0.797
5.21917	0.792
5.25915	0.782
5.29913	0.782
5.3391	0.772
5.37908	0.761
5.41906	0.744
5.45903	0.729
5.49901	0.722
5.53899	0.721
5.57897	0.707
5.61894	0.686
5.65892	0.666
5.6989	0.644
5.73887	0.621
5.77885	0.604
5.81883	0.601
5.85881	0.595
5.89878	0.614
5.93876	0.634
5.97874	0.667
6.01871	0.702
6.05869	0.702
6.09867	0.709
6.13865	0.712
6.17862	0.711
6.2186	0.716
6.25858	0.717
6.29855	0.722
6.33853	0.724
6.37851	0.722
6.41849	0.722
6.45846	0.722
6.49844	0.726
6.53842	0.729
6.57839	0.732
6.61837	0.734
6.65835	0.736
6.69833	0.701
6.7383	0.57
6.77828	0.574
6.81826	0.606
6.85823	0.707
6.89821	0.722
6.93819	0.734
6.97817	0.742
7.01814	0.746
7.05812	0.741
7.0981	0.716
7.13807	0.699
7.17805	0.722
7.21803	0.711
7.25801	0.651
7.29798	0.731
7.33796	0.751
7.37794	0.752
7.41791	0.762
7.45789	0.756
7.49787	0.751
7.53785	0.742
7.57782	0.729
7.6178	0.682
7.65778	0.714
7.69775	0.709
7.73773	0.682
7.77771	0.677
7.81769	0.682
7.85766	0.666
7.89764	0.644
7.93762	0.612
7.97759	0.575
8.01757	0.52
8.05755	0.455
8.09753	0.38
8.1375	0.313
8.17748	0.29
8.21746	0.332
8.25743	0.4
8.29741	0.393
8.33739	0.429
8.37737	0.454
8.41734	0.487
8.45732	0.522
8.4973	0.552
8.53727	0.569
8.57725	0.575
8.61723	0.584
8.65721	0.592
8.69718	0.601
8.73716	0.607
8.77714	0.612
8.81711	0.622
8.85709	0.634
8.89707	0.647
8.93705	0.657
8.97702	0.661
9.017	0.664
9.05698	0.659
9.09695	0.617
9.13693	0.519
9.17691	0.377
9.21689	0.255
9.25686	0.171
9.29684	0.113
9.33682	0.103
9.37679	0.11
9.41677	0.205
9.45675	0.28
9.49673	0.388
9.5367	0.419
9.57668	0.378
9.61666	0.252
9.65663	0.202
9.69661	0.188
9.73659	0.191
9.77657	0.218
9.81654	0.2
9.85652	0.131
9.8965	0.156
9.93647	0.238
9.97645	0.327
10.0164	0.388
10.0564	0.38
10.0964	0.298
10.1364	0.283
10.1763	0.375
10.2163	0.537
10.2563	0.609
10.2963	0.649
10.3362	0.671
10.3762	0.686
10.4162	0.679
10.4562	0.58
10.4962	0.502
10.5361	0.617
10.5761	0.706
10.6161	0.774
10.6561	0.796
10.696	0.814
10.736	0.819
10.776	0.814
10.816	0.794
10.8559	0.779
10.8959	0.769
10.9359	0.692
10.9759	0.722
11.0159	0.851
11.0558	0.883
11.0958	0.903
11.1358	0.919
11.1758	0.926
11.2157	0.931
11.2557	0.936
11.2957	0.934
11.3357	0.934
11.3757	0.933
11.4156	0.924
11.4556	0.906
11.4956	0.881
11.5356	0.828
11.5755	0.732
11.6155	0.564
11.6555	0.425
11.6955	0.318
11.7354	0.352
11.7754	0.547
11.8154	0.712
11.8554	0.851
11.8954	0.906
11.9353	0.941
11.9753	0.963
12.0153	0.984
12.0553	0.993
12.0952	1
12.1352	1.003
12.1752	1.003
12.2152	1.001
12.2551	1
12.2951	1
12.3351	1.001
12.3751	1
12.4151	0.994
12.455	0.989
12.495	0.979
12.535	0.969
12.575	0.931
12.6149	0.841
12.6549	0.737
12.6949	0.614
12.7349	0.577
12.7749	0.572
12.8148	0.606
12.8548	0.649
12.8948	0.699
12.9348	0.732
12.9747	0.762
13.0147	0.792
13.0547	0.811
13.0947	0.826
13.1346	0.843
13.1746	0.853
13.2146	0.856
13.2546	0.859
13.2946	0.863
13.3345	0.864
13.3745	0.869
13.4145	0.871
13.4545	0.874
13.4944	0.878
13.5344	0.883
13.5744	0.888
13.6144	0.894
13.6543	0.899
13.6943	0.903
13.7343	0.911
13.7743	0.919
13.8143	0.926
13.8542	0.929
13.8942	0.934
13.9342	0.936
13.9742	0.938
14.0141	0.939
14.0541	0.941
14.0941	0.944
14.1341	0.944
14.1741	0.946
14.214	0.946
14.254	0.946
14.294	0.946
14.334	0.946
14.3739	0.948
14.4139	0.946
14.4539	0.939
14.4939	0.934
14.5338	0.929
14.5738	0.921
14.6138	0.916
14.6538	0.909
14.6938	0.903
14.7337	0.901
14.7737	0.894
14.8137	0.891
14.8537	0.881
14.8936	0.864
14.9336	0.839
14.9736	0.818
15.0136	0.804
15.0535	0.803
15.0935	0.803
15.1335	0.796
15.1735	0.782
15.2135	0.769
15.2534	0.752
15.2934	0.744
15.3334	0.729
15.3734	0.712
15.4133	0.701
15.4533	0.686
15.4933	0.676
15.5333	0.662
15.5733	0.651
15.6132	0.641
15.6532	0.631
15.6932	0.616
15.7332	0.599
15.7731	0.589
15.8131	0.565
15.8531	0.549
15.8931	0.532
15.933	0.51
15.973	0.499
16.013	0.492
