Infrared Spectrum: cis-Propenylbenzene
Formula: C 9 H 10
CAS: 873-66-5
State: gas
Instrument: HP-GC/MS/IRD
Origin: NIST Mass Spectrometry Data Center
1/CM	ABSORBANCE
550	0.00026
562	0.0001274
574	1.3e-06
586	0.0001157
598	0.0001677
610	0.0002158
622	0.0003874
634	0.0006318
646	0.0014274
658	0.0018213
670	0.0028509
682	0.0062686
694	0.0114569
706	0.0099762
718	0.0054561
730	0.0032175
742	0.0040261
754	0.0064584
766	0.0062933
778	0.0035997
790	0.0024609
802	0.002626
814	0.0017017
826	0.0007709
838	0.0004043
850	0.0002743
862	0.0003133
874	0.0003315
886	0.0005746
898	0.0011518
910	0.0019643
922	0.0020111
934	0.0014404
946	0.0006825
958	0.0003055
970	0.000273
982	0.000195
994	0.0002431
1006	0.0003315
1018	0.0009308
1030	0.0012272
1042	0.0007683
1054	0.0007735
1066	0.0010127
1078	0.001027
1090	0.0006825
1102	0.0003328
1114	0.000221
1126	0.000117
1138	5.98e-05
1150	0.0001261
1162	0.0001027
1174	0.0001521
1186	0.0001963
1198	0.0001807
1210	0.0001547
1222	0.0001079
1234	0.0002119
1246	0.0002431
1258	0.0001911
1270	0.0001729
1282	0.0001482
1294	0.0002054
1306	0.0002782
1318	0.0003562
1330	0.0004121
1342	0.0004927
1354	0.0008008
1366	0.0014664
1378	0.0015457
1390	0.0013078
1402	0.0021814
1414	0.002106
1426	0.001651
1438	0.002171
1450	0.0021632
1462	0.0015704
1474	0.0013663
1486	0.002613
1498	0.0029718
1510	0.0013858
1522	0.0006214
1534	0.0006162
1546	0.0006045
1558	0.0005941
1570	0.0006864
1582	0.0010426
1594	0.0017589
1606	0.0014755
1618	0.0006513
1630	0.0005707
1642	0.0007969
1654	0.0011297
1666	0.0009711
1678	0.0005863
1690	0.0003549
1702	0.0003796
1714	0.0004589
1726	0.0005434
1738	0.0005447
1750	0.0004823
1762	0.0003783
1774	0.0003679
1786	0.0005148
1798	0.0005941
1810	0.0004225
1822	0.0002561
1834	0.0001768
1846	0.0002028
1858	0.0003029
1870	0.0004628
1882	0.0005837
1894	0.0004043
1906	0.0002223
1918	0.0003016
1930	0.0005057
1942	0.00065
1954	0.0005707
1966	0.000299
1978	0.0002028
1990	0.0002379
2002	0.0001989
2014	0.0001144
2026	6.5e-05
2038	4.42e-05
2050	4.94e-05
2062	1.56e-05
2074	1.95e-05
2086	1.3e-06
2098	7.8e-06
2110	2.6e-05
2122	2.47e-05
2134	1.43e-05
2146	3.25e-05
2158	1.95e-05
2170	2.73e-05
2182	1.56e-05
2194	2.6e-06
2206	2.47e-05
2218	3.51e-05
2230	2.73e-05
2242	4.03e-05
2254	6.63e-05
2266	6.24e-05
2278	6.11e-05
2290	6.11e-05
2302	0.000117
2314	0.0001196
2326	0.0001352
2338	0.0001404
2350	9.49e-05
2362	0.000104
2374	0.0001001
2386	4.42e-05
2398	5.72e-05
2410	3.64e-05
2422	4.55e-05
2434	4.94e-05
2446	3.77e-05
2458	4.81e-05
2470	4.16e-05
2482	2.47e-05
2494	2.99e-05
2506	5.2e-05
2518	7.15e-05
2530	5.98e-05
2542	5.59e-05
2554	5.59e-05
2566	6.89e-05
2578	7.54e-05
2590	8.58e-05
2602	0.0001053
2614	7.67e-05
2626	7.41e-05
2638	4.16e-05
2650	4.81e-05
2662	7.15e-05
2674	6.63e-05
2686	8.32e-05
2698	7.67e-05
2710	0.0001196
2722	0.0001651
2734	0.0001963
2746	0.0002197
2758	0.0002145
2770	0.0002691
2782	0.0003302
2794	0.0003536
2806	0.0004485
2818	0.0004667
2830	0.0005668
2842	0.00078
2854	0.0012844
2866	0.0019513
2878	0.0022347
2890	0.0021359
2902	0.0022763
2914	0.003159
2926	0.004277
2938	0.0043147
2950	0.0036712
2962	0.0028756
2974	0.0027924
2986	0.0030875
2998	0.0034112
3010	0.0065364
3022	0.0123578
3034	0.011856
3046	0.0073203
3058	0.0078923
3070	0.0087711
3082	0.0065897
3094	0.0046488
3106	0.0027365
3118	0.0013637
3130	0.000676
3142	0.0005213
3154	0.0004212
3166	0.000247
3178	0.0001768
3190	0.0001261
3202	0.0001495
3214	0.0001196
3226	0.0001027
3238	9.49e-05
3250	8.45e-05
3262	0.0001131
3274	0.0001001
3286	0.0001183
3298	9.49e-05
3310	5.72e-05
3322	6.11e-05
3334	7.54e-05
3346	9.75e-05
3358	8.71e-05
3370	0
3382	8.06e-05
3394	4.68e-05
3406	3.77e-05
3418	7.67e-05
3430	4.16e-05
3442	5.46e-05
3454	4.16e-05
3466	3.77e-05
3478	8.06e-05
3490	8.97e-05
3502	8.06e-05
3514	0.0001222
3526	8.58e-05
3538	7.67e-05
3550	7.93e-05
3562	4.42e-05
3574	8.06e-05
3586	5.59e-05
3598	6.63e-05
3610	0.0001079
3622	0.0001404
3634	0.0001612
3646	0.0001105
3658	0.0001079
3670	0.0001768
3682	0.0001235
3694	0.0001196
3706	0.0001612
3718	0.0001066
3730	0.0001274
3742	8.97e-05
3754	0.000104
3766	0.0001157
3778	8.84e-05
3790	0.0001105
3802	7.28e-05
3814	0.0001001
3826	0.0001495
3838	0.0001144
