Infrared Spectrum: PELARGONICN ACID, NONYL ESTER
Formula: C18 H36 O2
CAS: 87310-12-1
Boiling point: 148-149.5 C AT 1.5-1.6 mmHg
Class: COBLENTZ
Instrument: Not specified, most likely a prism, grating, or hybrid spectrometer.
Sampling: TRANSMISSION
Path length: SMEAR
Resolution: 4
Origin: TENNESSEE EASTMAN COMPANY, RESEARCH LABORATORIES
MICROMETERS	TRANSMITTANCE
2.062	0.993
2.10301	0.991
2.14403	0.988
2.18504	0.988
2.22605	0.982
2.26706	0.931
2.30808	0.887
2.34909	0.885
2.3901	0.885
2.43112	0.892
2.47213	0.901
2.51314	0.918
2.55415	0.931
2.59517	0.935
2.63618	0.931
2.67719	0.936
2.71821	0.936
2.75922	0.931
2.80023	0.935
2.84124	0.935
2.88226	0.933
2.92327	0.907
2.96428	0.923
3.0053	0.923
3.04631	0.924
3.08732	0.926
3.12833	0.923
3.16935	0.909
3.21036	0.902
3.25137	0.885
3.29239	0.831
3.3334	0.646
3.37441	0.075
3.41542	0.01
3.45644	0.061
3.49745	0.037
3.53846	0.518
3.57948	0.749
3.62049	0.819
3.6615	0.82
3.70251	0.831
3.74353	0.837
3.78454	0.836
3.82555	0.854
3.86657	0.872
3.90758	0.89
3.94859	0.904
3.9896	0.916
4.03062	0.921
4.07163	0.924
4.11264	0.93
4.15366	0.93
4.19467	0.928
4.23568	0.924
4.27669	0.89
4.31771	0.887
4.35872	0.907
4.39973	0.924
4.44075	0.926
4.48176	0.93
4.52277	0.931
4.56378	0.93
4.6048	0.93
4.64581	0.93
4.68682	0.93
4.72784	0.93
4.76885	0.928
4.80986	0.928
4.85087	0.924
4.89189	0.923
4.9329	0.919
4.97391	0.921
5.01493	0.933
5.05594	0.93
5.09695	0.93
5.13796	0.926
5.17898	0.926
5.21999	0.926
5.261	0.926
5.30202	0.921
5.34303	0.924
5.38404	0.923
5.42505	0.916
5.46607	0.907
5.50708	0.892
5.54809	0.863
5.58911	0.822
5.63012	0.761
5.67113	0.639
5.71214	0.271
5.75316	0.023
5.79417	0.134
5.83518	0.493
5.8762	0.638
5.91721	0.701
5.95822	0.769
5.99923	0.812
6.04025	0.832
6.08126	0.829
6.12227	0.851
6.16329	0.86
6.2043	0.861
6.24531	0.872
6.28632	0.875
6.32734	0.873
6.36835	0.868
6.40936	0.849
6.45038	0.865
6.49139	0.837
6.5324	0.851
6.57341	0.829
6.61443	0.817
6.65544	0.813
6.69645	0.771
6.73747	0.662
6.77848	0.279
6.81949	0.177
6.8605	0.271
6.90152	0.424
6.94253	0.496
6.98354	0.575
7.02456	0.581
7.06557	0.651
7.10658	0.706
7.14759	0.631
7.18861	0.518
7.22962	0.489
7.27063	0.433
7.31165	0.496
7.35266	0.472
7.39367	0.443
7.43468	0.46
7.4757	0.5
7.51671	0.544
7.55772	0.544
7.59874	0.505
7.63975	0.482
7.68076	0.46
7.72177	0.46
7.76279	0.445
7.8038	0.426
7.84481	0.424
7.88583	0.402
7.92684	0.368
7.96785	0.274
8.00886	0.245
8.04988	0.261
8.09089	0.284
8.1319	0.317
8.17292	0.298
8.21393	0.286
8.25494	0.274
8.29595	0.254
8.33697	0.22
8.37798	0.189
8.41899	0.174
8.46001	0.148
8.50102	0.119
8.54203	0.09
8.58304	0.087
8.62406	0.136
8.66507	0.247
8.70608	0.421
8.7471	0.52
8.78811	0.592
8.82912	0.598
8.87013	0.547
8.91115	0.44
8.95216	0.378
8.99317	0.346
9.03419	0.344
9.0752	0.428
9.11621	0.525
9.15722	0.612
9.19824	0.622
9.23925	0.612
9.28026	0.597
9.32128	0.585
9.36229	0.58
9.4033	0.578
9.44431	0.575
9.48533	0.569
9.52634	0.588
9.56735	0.598
9.60837	0.602
9.64938	0.6
9.69039	0.61
9.7314	0.619
9.77242	0.633
9.81343	0.651
9.85444	0.672
9.89546	0.687
9.93647	0.691
9.97748	0.694
10.0185	0.692
10.0595	0.691
10.1005	0.691
10.1415	0.692
10.1825	0.696
10.2236	0.694
10.2646	0.689
10.3056	0.682
10.3466	0.697
10.3876	0.726
10.4286	0.754
10.4696	0.771
10.5106	0.784
10.5517	0.788
10.5927	0.79
10.6337	0.795
10.6747	0.8
10.7157	0.808
10.7567	0.815
10.7977	0.82
10.8388	0.822
10.8798	0.824
10.9208	0.822
10.9618	0.822
11.0028	0.813
11.0438	0.805
11.0848	0.8
11.1258	0.798
11.1669	0.796
11.2079	0.8
11.2489	0.808
11.2899	0.819
11.3309	0.82
11.3719	0.827
11.4129	0.834
11.4539	0.834
11.495	0.831
11.536	0.831
11.577	0.834
11.618	0.839
11.659	0.848
11.7	0.854
11.741	0.858
11.782	0.86
11.8231	0.863
11.8641	0.865
11.9051	0.866
11.9461	0.868
11.9871	0.87
12.0281	0.87
12.0691	0.87
12.1101	0.868
12.1512	0.865
12.1922	0.86
12.2332	0.858
12.2742	0.86
12.3152	0.86
12.3562	0.86
12.3972	0.86
12.4383	0.86
12.4793	0.86
12.5203	0.858
12.5613	0.854
12.6023	0.848
12.6433	0.843
12.6843	0.841
12.7253	0.834
12.7664	0.827
12.8074	0.822
12.8484	0.817
12.8894	0.812
12.9304	0.807
12.9714	0.803
13.0124	0.802
13.0534	0.8
13.0945	0.8
13.1355	0.8
13.1765	0.796
13.2175	0.793
13.2585	0.788
13.2995	0.783
13.3405	0.778
13.3815	0.774
13.4226	0.766
13.4636	0.755
13.5046	0.744
13.5456	0.733
13.5866	0.721
13.6276	0.706
13.6686	0.694
13.7097	0.662
13.7507	0.621
13.7917	0.587
13.8327	0.581
13.8737	0.619
13.9147	0.651
13.9557	0.679
13.9967	0.699
14.0378	0.709
14.0788	0.718
14.1198	0.725
14.1608	0.73
14.2018	0.733
14.2428	0.735
14.2838	0.737
14.3248	0.737
14.3659	0.735
14.4069	0.735
14.4479	0.732
14.4889	0.728
14.5299	0.726
14.5709	0.721
14.6119	0.715
14.6529	0.709
14.694	0.706
14.735	0.699
14.776	0.692
14.817	0.687
14.858	0.682
14.899	0.674
14.94	0.662
14.981	0.656
15.0221	0.65
15.0631	0.643
15.1041	0.639
15.1451	0.633
15.1861	0.626
15.2271	0.617
15.2681	0.614
15.3092	0.607
15.3502	0.6
15.3912	0.595
15.4322	0.59
15.4732	0.585
15.5142	0.578
15.5552	0.573
15.5962	0.569
15.6373	0.568
15.6783	0.566
15.7193	0.563
15.7603	0.561
15.8013	0.559
15.8423	0.558
15.8833	0.556
15.9243	0.556
15.9654	0.554
