Infrared Spectrum: 4,7-Methanoindan-2,5-dicarboxylic acid, hexahydro-
Formula: C12 H16 O4
CAS: 87324-44-5
State: SOLID (SPLIT MULL), FLUOROLUBE FOR 3800-1330 CM^-^1, NUJOL FOR 1330-450 CM^-^1
Class: COBLENTZ III
Instrument: BECKMAN IR-9 (GRATING)
Instrument parameters: ORDER CHANGES: 670, 1200, 2000 CM^-^1
Sampling: TRANSMISSION
Resolution: 2
Origin: DOW CHEMICAL COMPANY
1/CM	TRANSMITTANCE
3800	0.8278
3791	0.8268
3782	0.8252
3773	0.8259
3764	0.8274
3755	0.8295
3746	0.8334
3737	0.8403
3728	0.8377
3719	0.836
3710	0.8363
3701	0.8358
3692	0.834
3683	0.8331
3674	0.8389
3665	0.8418
3656	0.8409
3647	0.8405
3638	0.8423
3629	0.8409
3620	0.8396
3611	0.8385
3602	0.8362
3593	0.837
3584	0.8373
3575	0.8305
3566	0.8352
3557	0.8398
3548	0.8399
3539	0.84
3530	0.8409
3521	0.8415
3512	0.8418
3503	0.8423
3494	0.843
3485	0.8418
3476	0.8406
3467	0.8417
3458	0.8432
3449	0.8437
3440	0.8431
3431	0.842
3422	0.8407
3413	0.8412
3404	0.8421
3395	0.84
3386	0.8378
3377	0.8343
3368	0.8305
3359	0.8251
3350	0.8201
3341	0.8149
3332	0.8112
3323	0.8101
3314	0.8087
3305	0.8058
3296	0.8007
3287	0.7933
3278	0.786
3269	0.7787
3260	0.7714
3251	0.7642
3242	0.7565
3233	0.7462
3224	0.7342
3215	0.7207
3206	0.7071
3197	0.6938
3188	0.6819
3179	0.6704
3170	0.6594
3161	0.6484
3152	0.6378
3143	0.626
3134	0.6123
3125	0.5972
3116	0.5824
3107	0.5655
3098	0.5512
3089	0.5504
3080	0.5475
3071	0.5432
3062	0.5356
3053	0.525
3044	0.5157
3035	0.5116
3026	0.5129
3017	0.5164
3008	0.5206
2999	0.5139
2990	0.4879
2981	0.4484
2972	0.3659
2963	0.3327
2954	0.3131
2945	0.3262
2936	0.363
2927	0.3858
2918	0.4021
2909	0.4199
2900	0.4417
2891	0.448
2882	0.4359
2873	0.4309
2864	0.4566
2855	0.4808
2846	0.5087
2837	0.5289
2828	0.5446
2819	0.5564
2810	0.5689
2801	0.58
2792	0.5887
2783	0.5962
2774	0.5964
2765	0.5949
2756	0.5936
2747	0.5941
2738	0.5962
2729	0.6049
2720	0.612
2711	0.6148
2702	0.6164
2693	0.6174
2684	0.6198
2675	0.6157
2666	0.612
2657	0.6123
2648	0.6147
2639	0.6151
2630	0.6136
2621	0.615
2612	0.6242
2603	0.6328
2594	0.6388
2585	0.6405
2576	0.6411
2567	0.6425
2558	0.6487
2549	0.6565
2540	0.6651
2531	0.6735
2522	0.6817
2513	0.6898
2504	0.6978
2495	0.7054
2486	0.7121
2477	0.719
2468	0.7245
2459	0.7296
2450	0.7346
2441	0.7396
2432	0.7446
2423	0.7493
2414	0.7534
2405	0.7574
2396	0.7617
2387	0.7657
2378	0.7687
2369	0.7697
2360	0.7696
2351	0.7701
2342	0.7744
2333	0.7751
2324	0.7725
2315	0.7811
2306	0.7839
2297	0.7861
2288	0.7908
2279	0.7962
2270	0.8015
2261	0.8067
2252	0.8124
2243	0.8191
2234	0.8267
2225	0.8333
2216	0.8375
2207	0.8416
2198	0.8382
2189	0.8425
2180	0.849
2171	0.8556
2162	0.8561
2153	0.8543
2144	0.8574
2135	0.8607
2126	0.8644
2117	0.8653
2108	0.8667
2099	0.8675
2090	0.8768
2081	0.8754
2072	0.8758
2063	0.8797
2054	0.882
2045	0.884
2036	0.8861
2027	0.8887
2018	0.8904
2009	0.8903
2000	0.8773
1991	0.8684
1982	0.8678
1973	0.8687
1964	0.8695
1955	0.87
1946	0.869
1937	0.8678
1928	0.8666
1919	0.8662
1910	0.8657
1901	0.8648
1892	0.8646
1883	0.8638
1874	0.8596
1865	0.8562
1856	0.856
1847	0.8575
1838	0.8592
1829	0.8585
1820	0.8589
1811	0.8592
1802	0.8574
1793	0.8563
1784	0.8553
1775	0.852
1766	0.8443
1757	0.8307
1748	0.7948
1739	0.7396
1730	0.6692
1721	0.4891
1712	0.1745
1703	0.087
1694	0.1171
1685	0.2953
1676	0.4381
1667	0.5608
1658	0.6433
1649	0.6826
1640	0.7117
1631	0.7395
1622	0.7647
1613	0.7846
1604	0.7987
1595	0.8098
1586	0.8195
1577	0.8275
1568	0.8348
1559	0.8401
1550	0.8431
1541	0.846
1532	0.8477
1523	0.8474
1514	0.8478
1505	0.8443
1496	0.8408
1487	0.8282
1478	0.759
1469	0.6858
1460	0.6765
1451	0.7301
1442	0.7262
1433	0.5726
1424	0.4704
1415	0.5151
1406	0.6486
1397	0.7168
1388	0.746
1379	0.7653
1370	0.7671
1361	0.7165
1352	0.6288
1343	0.623
1334	0.6026
1325	0.5609
1316	0.54
1307	0.496
1298	0.5279
1289	0.5327
1280	0.5198
1271	0.548
1262	0.584
1253	0.5372
1244	0.359
1235	0.4068
1226	0.3862
1217	0.4462
1208	0.5455
1199	0.6241
1190	0.6665
1181	0.6543
1172	0.6317
1163	0.6711
1154	0.6785
1145	0.6881
1136	0.7272
1127	0.7333
1118	0.7518
1109	0.7687
1100	0.7675
1091	0.7533
1082	0.7688
1073	0.7649
1064	0.7633
1055	0.7755
1046	0.7732
1037	0.768
1028	0.7349
1019	0.7382
1010	0.7382
1001	0.7281
992	0.7367
983	0.7104
974	0.6725
965	0.6654
956	0.6425
947	0.6068
938	0.5549
929	0.5301
920	0.5501
911	0.57
902	0.6269
893	0.6693
884	0.6886
875	0.7184
866	0.7121
857	0.7261
848	0.7395
839	0.7442
830	0.741
821	0.7628
812	0.7718
803	0.7751
794	0.774
785	0.7844
776	0.7742
767	0.771
758	0.7643
749	0.7468
740	0.7128
731	0.7055
722	0.6221
713	0.7174
704	0.7435
695	0.7544
686	0.7669
677	0.7417
668	0.7536
659	0.7825
650	0.8089
641	0.8265
632	0.8306
623	0.8304
614	0.8287
605	0.8259
596	0.821
587	0.827
578	0.8112
569	0.8108
560	0.8124
551	0.8001
542	0.8058
533	0.801
524	0.7955
515	0.7818
506	0.7828
497	0.788
488	0.7847
479	0.7768
470	0.7661
461	0.7539
