Infrared Spectrum: Dimethyl isopropylidenesuccinate
Formula: C 9 H 14 O 4
CAS: 87384-00-7
State: gas
Origin: EPA-IR VAPOR PHASE LIBRARY
1/CM	ABSORBANCE
549.9	0.00551
559.547	0.00543
569.193	0.0054
578.84	0.0054
588.486	0.00475
598.133	0.00411
607.779	0.00375753
617.426	0.00346
627.072	0.003584
636.719	0.0044199
646.365	0.00626
656.012	0.00869
665.658	0.00935
675.305	0.00674
684.951	0.0044102
694.598	0.00372462
704.245	0.003564
713.891	0.003545
723.538	0.0038073
733.184	0.0039005
742.831	0.0042797
752.477	0.00519
762.124	0.00768
771.77	0.01017
781.417	0.01029
791.063	0.01064
800.71	0.01084
810.356	0.01002
820.003	0.00968
829.649	0.01032
839.296	0.01137
848.943	0.01237
858.589	0.01266
868.236	0.01067
877.882	0.00823
887.529	0.00685
897.175	0.00543
906.822	0.004496
916.468	0.0044665
926.115	0.00507
935.761	0.00676
945.408	0.00939
955.054	0.00975
964.701	0.0092
974.347	0.01081
983.994	0.01314
993.64	0.01625
1003.29	0.02547
1012.93	0.03858
1022.58	0.04026
1032.23	0.02823
1041.87	0.02056
1051.52	0.0251
1061.17	0.04174
1070.81	0.07226
1080.46	0.08843
1090.11	0.06597
1099.75	0.04282
1109.4	0.03734
1119.05	0.04489
1128.69	0.06219
1138.34	0.07766
1147.99	0.10671
1157.63	0.16024
1167.28	0.20095
1176.92	0.19396
1186.57	0.18223
1196.22	0.18759
1205.86	0.17257
1215.51	0.13939
1225.16	0.1125
1234.8	0.09333
1244.45	0.08889
1254.1	0.08813
1263.74	0.08221
1273.39	0.08889
1283.04	0.10533
1292.68	0.10041
1302.33	0.08763
1311.98	0.07121
1321.62	0.05624
1331.27	0.05521
1340.92	0.0508
1350.56	0.03216
1360.21	0.02172
1369.86	0.02228
1379.5	0.02577
1389.15	0.02164
1398.79	0.01739
1408.44	0.01863
1418.09	0.024
1427.73	0.04204
1437.38	0.06832
1447.03	0.04534
1456.67	0.02663
1466.32	0.02193
1475.97	0.01784
1485.61	0.01422
1495.26	0.01195
1504.91	0.01067
1514.55	0.01002
1524.2	0.00972
1533.85	0.00982
1543.49	0.00982
1553.14	0.00972
1562.79	0.00967
1572.43	0.00944
1582.08	0.00923
1591.73	0.00929
1601.37	0.0097
1611.02	0.01056
1620.67	0.01264
1630.31	0.0171
1639.96	0.02269
1649.6	0.02188
1659.25	0.01537
1668.9	0.013
1678.54	0.01477
1688.19	0.01944
1697.84	0.02878
1707.48	0.04722
1717.13	0.08291
1726.78	0.1322
1736.42	0.18666
1746.07	0.19543
1755.72	0.20295
1765.36	0.17868
1775.01	0.09578
1784.66	0.04628
1794.3	0.02307
1803.95	0.01301
1813.6	0.00845
1823.24	0.00637
1832.89	0.00533
1842.54	0.00481
1852.18	0.0043344
1861.83	0.0039991
1871.47	0.00372615
1881.12	0.003554
1890.77	0.003452
1900.41	0.003466
1910.06	0.003419
1919.71	0.003572
1929.35	0.00371244
1939	0.0038553
1948.65	0.0039033
1958.29	0.0039555
1967.94	0.0039297
1977.59	0.0039264
1987.23	0.0038721
1996.88	0.003961
2006.53	0.0040512
2016.17	0.0043467
2025.82	0.0046116
2035.47	0.00477
2045.11	0.00487
2054.76	0.00473
2064.41	0.0044053
2074.05	0.0040508
2083.7	0.0036565
2093.35	0.00332
2102.99	0.003011
2112.64	0.002824
2122.28	0.002713
2131.93	0.002713
2141.58	0.00269
2151.22	0.00258
2160.87	0.00254
2170.52	0.0024
2180.16	0.00231
2189.81	0.00218
2199.46	0.00204
2209.1	0.00197
2218.75	0.00198
2228.4	0.00197
2238.04	0.00185
2247.69	0.00186
2257.34	0.00189
2266.98	0.00193
2276.63	0.00196
2286.28	0.00199
2295.92	0.00198
2305.57	0.002
2315.22	0.00201
2324.86	0.00196
2334.51	0.00197
2344.16	0.00194
2353.8	0.00198
2363.45	0.002
2373.09	0.00198
2382.74	0.00196
2392.39	0.00197
2402.03	0.00202
2411.68	0.00195
2421.33	0.00188
2430.97	0.00178
2440.62	0.00178
2450.27	0.0017
2459.91	0.00166
2469.56	0.0016
2479.21	0.00164
2488.85	0.00168
2498.5	0.00161
2508.15	0.00161
2517.79	0.00161
2527.44	0.00149
2537.09	0.00148
2546.73	0.00145
2556.38	0.00149
2566.03	0.0016
2575.67	0.0016
2585.32	0.00177
2594.96	0.00187
2604.61	0.00181
2614.26	0.00169
2623.9	0.00149
2633.55	0.00143
2643.2	0.0015
2652.84	0.00154
2662.49	0.00137
2672.14	0.0013
2681.78	0.00122
2691.43	0.00122
2701.08	0.00128
2710.72	0.00147
2720.37	0.00166
2730.02	0.00207
2739.66	0.00247
2749.31	0.0024
2758.96	0.00209
2768.6	0.00194
2778.25	0.00193
2787.9	0.00192
2797.54	0.00227
2807.19	0.002893
2816.84	0.0040152
2826.48	0.00578
2836.13	0.01008
2845.77	0.01661
2855.42	0.01658
2865.07	0.01533
2874.71	0.01614
2884.36	0.01731
2894.01	0.02038
2903.65	0.02538
2913.3	0.03335
2922.95	0.04332
2932.59	0.04704
2942.24	0.04942
2951.89	0.07523
2961.53	0.08577
2971.18	0.04564
2980.83	0.02779
2990.47	0.02819
3000.12	0.03029
3009.77	0.02898
3019.41	0.02701
3029.06	0.02434
3038.71	0.01879
3048.35	0.01426
3058	0.01136
3067.64	0.00914
3077.29	0.0076
3086.94	0.00637
3096.58	0.00553
3106.23	0.0046447
3115.88	0.00368568
3125.52	0.002871
3135.17	0.00216
3144.82	0.00174
3154.46	0.00154
3164.11	0.00118
3173.76	0.00098
3183.4	0.00073
3193.05	0.00064
3202.7	0.0004
3212.34	0.00032
3221.99	0.00019
3231.64	0.00022
3241.28	0.00024
3250.93	0.00014
3260.58	0.00022
3270.22	0.00012
3279.87	0.00014
3289.52	0.0003
3299.16	0.0003
3308.81	0.0002
3318.45	0.00036
3328.1	0.0005
3337.75	0.00055
3347.39	0.00055
3357.04	0.00056
3366.69	0.0008
3376.33	0.00082
3385.98	0.00081
3395.63	0.00109
3405.27	0.0009
3414.92	0.0012
3424.57	0.00137
3434.21	0.00162
3443.86	0.00166
3453.51	0.00219
3463.15	0.00222
3472.8	0.00221
3482.45	0.00227
3492.09	0.00245
3501.74	0.0026
3511.39	0.00229
3521.03	0.00184
3530.68	0.00134
3540.33	0.00123
3549.97	0.00133
3559.62	0.00112
3569.26	0.00113
3578.91	0.0012
3588.56	0.00125
3598.2	0.0013
3607.85	0.00123
3617.5	0.00139
3627.14	0.00138
3636.79	0.00139
3646.44	0.00131
3656.08	0.00134
3665.73	0.0014
3675.38	0.00146
3685.02	0.00125
3694.67	0.00145
3704.32	0.00124
3713.96	0.00145
3723.61	0.00125
3733.26	0.00145
3742.9	0.00142
3752.55	0.0016
3762.2	0.00146
3771.84	0.00157
3781.49	0.00168
3791.13	0.00165
3800.78	0.00169
3810.43	0.00167
3820.07	0.00182
3829.72	0.0018
3839.37	0.00182
3849.01	0.00183
3858.66	0.00168
3868.31	0.00173
3877.95	0.00175
3887.6	0.00181
3897.25	0.00187
3906.89	0.00191
3916.54	0.00189
3926.19	0.002
3935.83	0.00196
3945.48	0.00202
3955.13	0.00183
3964.77	0.00209
3974.42	0.00213
3984.07	0.00209
3993.71	0.0021
