Infrared Spectrum: p-Toluyl chloride
Formula: C 8 H 7 Cl O
CAS: 874-60-2
State: gas
Origin: EPA-IR VAPOR PHASE LIBRARY
1/CM	ABSORBANCE
549.8	0.001537
559.445	0.001567
569.09	0.001907
578.734	0.002557
588.379	0.004027
598.024	0.010857
607.669	0.029427
617.313	0.033747
626.958	0.015087
636.603	0.012377
646.248	0.018707
655.893	0.008177
665.537	0.003347
675.182	0.001877
684.827	0.002147
694.472	0.002517
704.116	0.004647
713.761	0.007647
723.406	0.008077
733.051	0.007427
742.695	0.005817
752.34	0.005587
761.985	0.010737
771.63	0.029637
781.275	0.041747
790.919	0.027187
800.564	0.021247
810.209	0.022267
819.854	0.022577
829.498	0.018457
839.143	0.012967
848.788	0.015277
858.433	0.032267
868.078	0.071647
877.722	0.114227
887.367	0.087007
897.012	0.036977
906.657	0.023117
916.301	0.015547
925.946	0.009567
935.591	0.006417
945.236	0.004807
954.88	0.003787
964.525	0.002977
974.17	0.003107
983.815	0.003387
993.46	0.003107
1003.1	0.002597
1012.75	0.003137
1022.39	0.003067
1032.04	0.002517
1041.68	0.003247
1051.33	0.002597
1060.97	0.002407
1070.62	0.002067
1080.26	0.002317
1089.91	0.002887
1099.55	0.002337
1109.2	0.003117
1118.84	0.003937
1128.49	0.004597
1138.13	0.004637
1147.78	0.007457
1157.42	0.017417
1167.07	0.059857
1176.71	0.085207
1186.36	0.040427
1196	0.045287
1205.64	0.059627
1215.29	0.031737
1224.93	0.014097
1234.58	0.010897
1244.22	0.006747
1253.87	0.003317
1263.51	0.002367
1273.16	0.002407
1282.8	0.003047
1292.45	0.003377
1302.09	0.003287
1311.74	0.003037
1321.38	0.002227
1331.03	0.001557
1340.67	0.001537
1350.32	0.002007
1359.96	0.002537
1369.61	0.002337
1379.25	0.002407
1388.9	0.003517
1398.54	0.005877
1408.18	0.008177
1417.83	0.007537
1427.47	0.005397
1437.12	0.004257
1446.76	0.003827
1456.41	0.003667
1466.05	0.004177
1475.7	0.004297
1485.34	0.004517
1494.99	0.004987
1504.63	0.005197
1514.28	0.004157
1523.92	0.003157
1533.57	0.003097
1543.21	0.003287
1552.86	0.003817
1562.5	0.004787
1572.15	0.006777
1581.79	0.007887
1591.44	0.011087
1601.08	0.025517
1610.73	0.030927
1620.37	0.013307
1630.01	0.004677
1639.66	0.003767
1649.3	0.003787
1658.95	0.003637
1668.59	0.003217
1678.24	0.002557
1687.88	0.002607
1697.53	0.002637
1707.17	0.003537
1716.82	0.005357
1726.46	0.010107
1736.11	0.019407
1745.75	0.031567
1755.4	0.038357
1765.04	0.046507
1774.69	0.075207
1784.33	0.108077
1793.98	0.097607
1803.62	0.047417
1813.27	0.017877
1822.91	0.009007
1832.55	0.006437
1842.2	0.004337
1851.84	0.002467
1861.49	0.001717
1871.13	0.001477
1880.78	0.0013276
1890.42	0.0013333
1900.07	0.001697
1909.71	0.002387
1919.36	0.002747
1929	0.002307
1938.65	0.001587
1948.29	0.0012591
1957.94	0.0012559
1967.58	0.0010246
1977.23	0.0009044
1986.87	0.0009274
1996.52	0.0008966
2006.16	0.0007944
2015.81	0.0009061
2025.45	0.0009239
2035.1	0.0010364
2044.74	0.0011732
2054.38	0.0012067
2064.03	0.001162
2073.67	0.0009441
2083.32	0.0009318
2092.96	0.000893
2102.61	0.0007142
2112.25	0.0007034
2121.9	0.0007227
2131.54	0.0005039
2141.19	0.00048394
2150.83	0.0005142
2160.48	0.0006646
2170.12	0.0006881
2179.77	0.0005896
2189.41	0.0007101
2199.06	0.000766
2208.7	0.0006408
2218.35	0.000639
2227.99	0.0005738
2237.64	0.0006065
2247.28	0.0005407
2256.92	0.0004921
2266.57	0.0005825
2276.21	0.0005567
2285.86	0.0006829
2295.5	0.0006969
2305.15	0.0007381
2314.79	0.000693
2324.44	0.0006896
2334.08	0.0007101
2343.73	0.0007931
2353.37	0.0008623
2363.02	0.0009369
2372.66	0.0010138
2382.31	0.0012301
2391.95	0.0010641
2401.6	0.0010022
2411.24	0.0008208
2420.89	0.0008371
2430.53	0.0008115
2440.18	0.0007161
2449.82	0.000585
2459.47	0.0006617
2469.11	0.0005568
2478.75	0.0006981
2488.4	0.0005063
2498.04	0.0006063
2507.69	0.0005851
2517.33	0.0006081
2526.98	0.0006672
2536.62	0.0006403
2546.27	0.0005751
2555.91	0.0007029
2565.56	0.0006992
2575.2	0.00092
2584.85	0.0009226
2594.49	0.0008993
2604.14	0.0007531
2613.78	0.0006903
2623.43	0.0006764
2633.07	0.0005522
2642.72	0.00043224
2652.36	0.0005426
2662.01	0.0005362
2671.65	0.0007971
2681.29	0.0006231
2690.94	0.0006547
2700.58	0.0007345
2710.23	0.0008544
2719.87	0.0006573
2729.52	0.0007596
2739.16	0.000935
2748.81	0.0009366
2758.45	0.0007395
2768.1	0.0008148
2777.74	0.0009927
2787.39	0.0008672
2797.03	0.00092
2806.68	0.0010952
2816.32	0.0011825
2825.97	0.001331
2835.61	0.0011532
2845.26	0.001427
2854.9	0.001867
2864.55	0.002977
2874.19	0.004177
2883.84	0.004507
2893.48	0.004087
2903.12	0.003967
2912.77	0.004497
2922.41	0.006427
2932.06	0.009567
2941.7	0.009137
2951.35	0.005627
2960.99	0.004047
2970.64	0.003497
2980.28	0.003557
2989.93	0.004087
2999.57	0.005017
3009.22	0.005567
3018.86	0.005067
3028.51	0.006787
3038.15	0.009737
3047.8	0.009827
3057.44	0.007317
3067.09	0.005617
3076.73	0.004677
3086.38	0.003757
3096.02	0.003157
3105.67	0.002417
3115.31	0.001587
3124.95	0.0011048
3134.6	0.0009375
3144.24	0.0006895
3153.89	0.0006945
3163.53	0.0006886
3173.18	0.0003544
3182.82	0.0003021
3192.47	0.0003657
3202.11	0.000195
3211.76	0.0003856
3221.4	0.000392771
3231.05	0.00043263
3240.69	0.000277
3250.34	0.000229
3259.98	0.0003399
3269.63	0.0003734
3279.27	0.0003581
3288.92	0.00038294
3298.56	0.000176
3308.21	0.00041035
3317.85	0.000391628
3327.49	9.3e-05
3337.14	0.000261
3346.78	0.000163
3356.43	0.0005398
3366.07	0.0003521
3375.72	0.00043935
3385.36	0.0005319
3395.01	0.00039849
3404.65	0.00048685
3414.3	0.00040499
3423.94	0.00042517
3433.59	0.0006247
3443.23	0.0003289
3452.88	0.00047953
3462.52	0.0005586
3472.17	0.0004407
3481.81	0.0005804
3491.46	0.0008166
3501.1	0.0005343
3510.75	0.001227
3520.39	0.001517
3530.04	0.001627
3539.68	0.001437
3549.32	0.0009181
3558.97	0.0009052
3568.61	0.0008226
3578.26	0.0008404
3587.9	0.0008569
3597.55	0.0006011
3607.19	0.000284
3616.84	0.00043986
3626.48	0.000236
3636.13	0.000386578
3645.77	0.0006075
3655.42	0.0003381
3665.06	0.0003091
3674.71	0.00041825
3684.35	0.0005723
3694	0.000315
3703.64	0.0002915
3713.29	0.000322
3722.93	0.000279
3732.58	0.0003392
3742.22	0.0004443
3751.86	6.5e-05
3761.51	0.0003452
3771.15	0.0003558
3780.8	0.00039708
3790.44	0.00048385
3800.09	9.6e-05
3809.73	0.00048625
3819.38	0.00047858
3829.02	0.00040918
3838.67	0.0003184
3848.31	0.000235
3857.96	0.0006942
3867.6	0.0004893
3877.25	0.0006129
3886.89	0.0002998
3896.54	0.0002983
3906.18	0.0003851
3915.83	0.00041159
3925.47	0.00046323
3935.12	0.00042622
3944.76	0.0005576
3954.41	0.00046532
3964.05	0.000124
3973.69	0.000267
3983.34	0.0005182
3992.98	0.00038596
