Infrared Spectrum: 1,3-Dimethyl-4-ethylbenzene
Formula: C 10 H 14
CAS: 874-41-9
State: gas
Instrument: HP-GC/MS/IRD
Origin: NIST Mass Spectrometry Data Center
1/CM	ABSORBANCE
550	0.000418
562	0.0008404
574	0.0004609
586	0.0001628
598	9.02e-05
610	7.81e-05
622	5.39e-05
634	6.38e-05
646	7.59e-05
658	8.58e-05
670	0.0001089
682	4.18e-05
694	0.0002189
706	0.0001683
718	0.0001364
730	0.0002101
742	0.0001804
754	0.0001837
766	0.0002849
778	0.0004191
790	0.0009845
802	0.0023045
814	0.0037686
826	0.0021912
838	0.0007425
850	0.0004312
862	0.0005654
874	0.0007238
886	0.000363
898	0.0002464
910	0.000319
922	0.0003388
934	0.0002915
946	0.0003399
958	0.000506
970	0.0005368
982	0.0004554
994	0.0004554
1006	0.0005599
1018	0.0005181
1030	0.0005731
1042	0.0007667
1054	0.0008866
1066	0.0008305
1078	0.0004246
1090	0.0002376
1102	0.0002574
1114	0.0002893
1126	0.0002827
1138	0.0003619
1150	0.0004158
1162	0.0003982
1174	0.0002816
1186	0.0002079
1198	0.0002838
1210	0.0004147
1222	0.0003608
1234	0.0002937
1246	0.0003047
1258	0.0002915
1270	0.0003135
1282	0.0003355
1294	0.0003872
1306	0.0004785
1318	0.0006754
1330	0.000638
1342	0.0005071
1354	0.0004928
1366	0.0006831
1378	0.0010351
1390	0.0009702
1402	0.0008129
1414	0.0010043
1426	0.0012529
1438	0.001573
1450	0.0020559
1462	0.0022748
1474	0.0020196
1486	0.002266
1498	0.0035101
1510	0.0031878
1522	0.0015587
1534	0.0009845
1546	0.0007557
1558	0.0005665
1570	0.0005566
1582	0.0004895
1594	0.0005918
1606	0.0009339
1618	0.0010395
1630	0.000572
1642	0.00022
1654	4.95e-05
1666	0.0001507
1678	0.0001573
1690	0.0001584
1702	5.39e-05
1714	7.92e-05
1726	0.0002266
1738	0.000264
1750	0.0001991
1762	0.0001265
1774	6.93e-05
1786	8.14e-05
1798	8.14e-05
1810	0.0001309
1822	0.0001133
1834	0.0001078
1846	6.27e-05
1858	0.0001408
1870	0.0002134
1882	0.0003432
1894	0.0002486
1906	0.0001276
1918	8.58e-05
1930	8.36e-05
1942	7.92e-05
1954	7.81e-05
1966	7.04e-05
1978	8.14e-05
1990	4.62e-05
2002	7.81e-05
2014	8.14e-05
2026	6.49e-05
2038	8.47e-05
2050	8.14e-05
2062	7.7e-05
2074	5.72e-05
2086	6.16e-05
2098	5.83e-05
2110	4.84e-05
2122	6.16e-05
2134	3.74e-05
2146	3.3e-05
2158	5.61e-05
2170	6.6e-05
2182	5.39e-05
2194	3.96e-05
2206	4.29e-05
2218	4.29e-05
2230	5.17e-05
2242	6.49e-05
2254	6.93e-05
2266	7.81e-05
2278	4.51e-05
2290	4.62e-05
2302	6.16e-05
2314	4.62e-05
2326	1.32e-05
2338	2.75e-05
2350	3.19e-05
2362	6.6e-06
2374	2.53e-05
2386	5.72e-05
2398	6.82e-05
2410	4.73e-05
2422	8.25e-05
2434	6.38e-05
2446	8.03e-05
2458	6.93e-05
2470	4.51e-05
2482	5.72e-05
2494	7.7e-05
2506	8.03e-05
2518	4.4e-05
2530	8.25e-05
2542	5.61e-05
2554	5.06e-05
2566	6.6e-06
2578	6.49e-05
2590	4.95e-05
2602	7.26e-05
2614	8.47e-05
2626	9.68e-05
2638	0.0001177
2650	9.79e-05
2662	9.24e-05
2674	0.0001122
2686	9.13e-05
2698	0.0001111
2710	0.0001562
2722	0.0002288
2734	0.0003828
2746	0.0004774
2758	0.0003399
2770	0.0003025
2782	0.0004092
2794	0.00044
2806	0.0005313
2818	0.0006853
2830	0.0009229
2842	0.0014168
2854	0.0023298
2866	0.0041481
2878	0.0061974
2890	0.0063558
2902	0.0056155
2914	0.006259
2926	0.0087153
2938	0.0102894
2950	0.008833
2962	0.0093181
2974	0.0109505
2986	0.0072369
2998	0.0057904
3010	0.0063756
3022	0.005478
3034	0.0041756
3046	0.0035728
3058	0.0026939
3070	0.0019118
3082	0.0013739
3094	0.0009724
3106	0.000792
3118	0.000715
3130	0.0005841
3142	0.0004015
3154	0.0003289
3166	0.0002794
3178	0.0002365
3190	0.0002299
3202	0.0002079
3214	0.0001793
3226	0.0001914
3238	0.000176
3250	0.0001199
3262	0.0001166
3274	0.0001001
3286	0.0001056
3298	0.0001144
3310	0.0001298
3322	8.03e-05
3334	6.71e-05
3346	8.03e-05
3358	0.0001232
3370	0.0001166
3382	0.0001408
3394	9.02e-05
3406	9.57e-05
3418	0.0001078
3430	0.0001529
3442	0.0001254
3454	8.8e-05
3466	0.0001529
3478	8.03e-05
3490	7.7e-05
3502	8.25e-05
3514	5.28e-05
3526	9.02e-05
3538	9.57e-05
3550	5.72e-05
3562	8.25e-05
3574	0.0001078
3586	1.98e-05
3598	5.5e-05
3610	4.73e-05
3622	4.51e-05
3634	7.81e-05
3646	3.74e-05
3658	2.53e-05
3670	3.85e-05
3682	9.9e-05
3694	6.27e-05
3706	0.000121
3718	0.0001056
3730	7.26e-05
3742	5.28e-05
3754	4.84e-05
3766	7.7e-05
3778	0.0001287
3790	0.0001771
3802	0.0001023
3814	0.0001078
3826	0.0001507
3838	6.82e-05
