Infrared Spectrum: 3,5-Dimethylanisole
Formula: C 9 H 12 O
CAS: 874-63-5
State: gas
Origin: EPA-IR VAPOR PHASE LIBRARY
1/CM	ABSORBANCE
501.5	0.0005122
513.074	0.00048949
524.648	0
536.222	0.000143
547.796	0.000111
559.37	0.000572
570.944	0.00164
582.518	0.00389
594.092	0.00441
605.666	0.00225
617.24	0.001196
628.814	0.001018
640.388	0.0011533
651.962	0.00142
663.536	0.00209
675.11	0.00539
686.684	0.01037
698.258	0.00544
709.832	0.00181
721.406	0.0007329
732.98	0.0005712
744.554	0.0005152
756.128	0.00046988
767.702	0.0004266
779.276	0.0005142
790.85	0.0008659
802.423	0.00183
813.997	0.00665
825.571	0.01763
837.145	0.01801
848.719	0.01037
860.293	0.00501
871.867	0.00441
883.441	0.00315
895.015	0.00281
906.589	0.00542
918.163	0.00692
929.737	0.00414
941.311	0.00379
952.885	0.00411
964.459	0.00339
976.033	0.00385
987.607	0.00485
999.181	0.00489
1010.76	0.00425
1022.33	0.00463
1033.9	0.00777
1045.48	0.0139
1057.05	0.02192
1068.63	0.03019
1080.2	0.02692
1091.77	0.01257
1103.35	0.00586
1114.92	0.00513
1126.49	0.00709
1138.07	0.02076
1149.64	0.04985
1161.22	0.05456
1172.79	0.0321
1184.36	0.02139
1195.94	0.02185
1207.51	0.00998
1219.09	0.00317
1230.66	0.00204
1242.23	0.00215
1253.81	0.00298
1265.38	0.00452
1276.96	0.01111
1288.53	0.03249
1300.1	0.04852
1311.68	0.05129
1323.25	0.04408
1334.83	0.01867
1346.4	0.00753
1357.97	0.0059
1369.55	0.00557
1381.12	0.00591
1392.7	0.00626
1404.27	0.00735
1415.84	0.01048
1427.42	0.01796
1438.99	0.02377
1450.57	0.02702
1462.14	0.03244
1473.71	0.02752
1485.29	0.02073
1496.86	0.01717
1508.44	0.01497
1520.01	0.01436
1531.58	0.01493
1543.16	0.01458
1554.73	0.015
1566.31	0.01885
1577.88	0.03246
1589.45	0.06206
1601.03	0.07982
1612.6	0.05094
1624.18	0.02211
1635.75	0.00909
1647.32	0.00514
1658.9	0.00362
1670.47	0.00322
1682.05	0.00273
1693.62	0.00264
1705.19	0.00305
1716.77	0.0029
1728.34	0.00251
1739.92	0.00227
1751.49	0.00191
1763.06	0.00163
1774.64	0.0013935
1786.21	0.0012557
1797.79	0.0010489
1809.36	0.0008825
1820.93	0.0008489
1832.51	0.0007749
1844.08	0.000703
1855.66	0.0007649
1867.23	0.0008607
1878.8	0.0009939
1890.38	0.0011749
1901.95	0.0012682
1913.53	0.001293
1925.1	0.0010503
1936.67	0.0008778
1948.25	0.0008463
1959.82	0.0008549
1971.4	0.0009215
1982.97	0.0009443
1994.54	0.0009019
2006.12	0.0007717
2017.69	0.0007866
2029.27	0.0008257
2040.84	0.0010448
2052.41	0.0013897
2063.99	0.00181
2075.56	0.00175
2087.14	0.0014006
2098.71	0.0012473
2110.28	0.0012694
2121.86	0.0012114
2133.43	0.001188
2145.01	0.0011758
2156.58	0.001075
2168.15	0.0009832
2179.73	0.000994
2191.3	0.0010584
2202.88	0.0011304
2214.45	0.0012748
2226.02	0.0012692
2237.6	0.0011669
2249.17	0.0008242
2260.74	0.0006173
2272.32	0.0005903
2283.89	0.0005841
2295.47	0.0006836
2307.04	0.0006771
2318.61	0.0007744
2330.19	0.0008357
2341.76	0.0008321
2353.34	0.0007527
2364.91	0.0008021
2376.48	0.0008352
2388.06	0.0008038
2399.63	0.000792
2411.21	0.0008293
2422.78	0.0009039
2434.35	0.0010987
2445.93	0.0012524
2457.5	0.0011526
2469.08	0.0010185
2480.65	0.0010081
2492.22	0.0009534
2503.8	0.0009397
2515.37	0.0009558
2526.95	0.000832
2538.52	0.0008009
2550.09	0.0007939
2561.67	0.0007612
2573.24	0.000718
2584.82	0.0008012
2596.39	0.0010011
2607.96	0.0011615
2619.54	0.0011142
2631.11	0.0009308
2642.69	0.000888
2654.26	0.0008587
2665.83	0.0008313
2677.41	0.0008128
2688.98	0.0008115
2700.56	0.000937
2712.13	0.0010929
2723.7	0.0013891
2735.28	0.00214
2746.85	0.00244
2758.43	0.00194
2770	0.00181
2781.57	0.00207
2793.15	0.00256
2804.72	0.0033
2816.3	0.00475
2827.87	0.00818
2839.44	0.0147
2851.02	0.01732
2862.59	0.01681
2874.17	0.01846
2885.74	0.01823
2897.31	0.01913
2908.89	0.02448
2920.46	0.03511
2932.04	0.04316
2943.61	0.04071
2955.18	0.03185
2966.76	0.02059
2978.33	0.01635
2989.91	0.01943
3001.48	0.02622
3013.05	0.02552
3024.63	0.02193
3036.2	0.01851
3047.78	0.01564
3059.35	0.01384
3070.92	0.01043
3082.5	0.00668
3094.07	0.00399
3105.65	0.00281
3117.22	0.00221
3128.79	0.00167
3140.37	0.0012953
3151.94	0.001108
3163.52	0.0010335
3175.09	0.000889
3186.66	0.0008276
3198.24	0.0008132
3209.81	0.0007467
3221.39	0.0006818
3232.96	0.0006621
3244.53	0.0006643
3256.11	0.0005823
3267.68	0.0005287
3279.26	0.0005446
3290.83	0.00047351
3302.4	0.00048806
3313.98	0.00049977
3325.55	0.00043371
3337.13	0.0003754
3348.7	0.00042845
3360.27	0.000418004
3371.85	0.00044849
3383.42	0.0005268
3395	0.0004795
3406.57	0.00046351
3418.14	0.0004584
3429.72	0.00049194
3441.29	0.00047728
3452.86	0.00045819
3464.44	0.00043713
3476.01	0.00044837
3487.59	0.00043152
3499.16	0.0004029
3510.73	0.00044761
3522.31	0.00042758
3533.88	0.00046131
3545.46	0.00044039
3557.03	0.00043737
3568.6	0.00048934
3580.18	0.000416057
3591.75	0.0004295
3603.33	0.00042299
3614.9	0.0003383
3626.47	0.0003706
3638.05	0.00038
3649.62	0.0003857
3661.2	0.0003492
3672.77	0.0003484
3684.34	0.00042372
3695.92	0.0003526
3707.49	0.0003914
3719.07	0.0003291
3730.64	0.0004318
3742.21	0.0003985
3753.79	0.00045308
3765.36	0.0004425
3776.94	0.000414158
3788.51	0.0004538
3800.08	0.000419959
3811.66	0.0003893
3823.23	0.00043439
3834.81	0.00045194
3846.38	0.0005341
3857.95	0.0005195
3869.53	0.000544
3881.1	0.0005336
3892.68	0.0006048
3904.25	0.0006026
3915.82	0.0007323
3927.4	0.0006578
3938.97	0.0007172
3950.55	0.0006052
3962.12	0.0006066
3973.69	0.0006714
3985.27	0.000758
3996.84	0.0008031
