Infrared Spectrum: P-NITRO CARBANILIC ACID, n-BUTYL ESTER
Formula: C11 H14 N2 O4
CAS: 87457-99-6
State: SOLID (1.6 mg / 100 mg KBr)
Melting point: 97 C
Class: COBLENTZ
Instrument: Not specified, most likely a grating spectrometer.
Sampling: TRANSMISSION
Resolution: 4
Origin: CITRUS EXPERIMENT STATION, UNIVERSITY OF FLORIDA (G. EDWARDS)
MICROMETERS	TRANSMITTANCE
2.066	0.769
2.09918	0.77
2.13235	0.769
2.16553	0.769
2.19871	0.769
2.23188	0.769
2.26506	0.769
2.29824	0.772
2.33142	0.77
2.36459	0.77
2.39777	0.772
2.43095	0.772
2.46412	0.773
2.4973	0.773
2.53048	0.773
2.56365	0.773
2.59683	0.773
2.63001	0.773
2.66319	0.772
2.69636	0.77
2.72954	0.764
2.76272	0.762
2.79589	0.761
2.82907	0.756
2.86225	0.746
2.89542	0.74
2.9286	0.632
2.96178	0.325
2.99496	0.706
3.02813	0.74
3.06131	0.764
3.09449	0.766
3.12766	0.768
3.16084	0.762
3.19402	0.757
3.22719	0.753
3.26037	0.757
3.29355	0.756
3.32673	0.744
3.3599	0.594
3.39308	0.598
3.42626	0.664
3.45943	0.662
3.49261	0.704
3.52579	0.769
3.55896	0.782
3.59214	0.788
3.62532	0.79
3.6585	0.79
3.69167	0.792
3.72485	0.792
3.75803	0.794
3.7912	0.793
3.82438	0.794
3.85756	0.796
3.89073	0.797
3.92391	0.797
3.95709	0.797
3.99026	0.797
4.02344	0.796
4.05662	0.796
4.0898	0.797
4.12297	0.806
4.15615	0.81
4.18933	0.813
4.2225	0.817
4.25568	0.817
4.28886	0.817
4.32203	0.817
4.35521	0.817
4.38839	0.816
4.42157	0.816
4.45474	0.818
4.48792	0.818
4.5211	0.818
4.55427	0.818
4.58745	0.824
4.62063	0.829
4.6538	0.83
4.68698	0.829
4.72016	0.829
4.75334	0.829
4.78651	0.829
4.81969	0.829
4.85287	0.829
4.88604	0.829
4.91922	0.828
4.9524	0.829
4.98557	0.829
5.01875	0.829
5.05193	0.829
5.08511	0.828
5.11828	0.822
5.15146	0.82
5.18464	0.824
5.21781	0.829
5.25099	0.832
5.28417	0.83
5.31734	0.83
5.35052	0.829
5.3837	0.825
5.41688	0.821
5.45005	0.81
5.48323	0.802
5.51641	0.796
5.54958	0.788
5.58276	0.786
5.61594	0.782
5.64911	0.768
5.68229	0.721
5.71547	0.41
5.74865	0.361
5.78182	0.61
5.815	0.706
5.84818	0.746
5.88135	0.793
5.91453	0.794
5.94771	0.797
5.98088	0.797
6.01406	0.796
6.04724	0.776
6.08041	0.772
6.11359	0.746
6.14677	0.708
6.17995	0.384
6.21312	0.478
6.2463	0.34
6.27948	0.574
6.31265	0.709
6.34583	0.669
6.37901	0.565
6.41218	0.27
6.44536	0.196
6.47854	0.422
6.51172	0.497
6.54489	0.382
6.57807	0.27
6.61125	0.453
6.64442	0.474
6.6776	0.458
6.71078	0.644
6.74395	0.613
6.77713	0.662
6.81031	0.676
6.84349	0.71
6.87666	0.737
6.90984	0.768
6.94302	0.774
6.97619	0.769
7.00937	0.722
7.04255	0.592
7.07572	0.673
7.1089	0.733
7.14208	0.725
7.17526	0.717
7.20843	0.674
7.24161	0.673
7.27479	0.665
7.30796	0.666
7.34114	0.656
7.37432	0.546
7.40749	0.292
7.44067	0.173
7.47385	0.084
7.50703	0.101
7.5402	0.174
7.57338	0.292
7.60656	0.326
7.63973	0.344
7.67291	0.544
7.70609	0.621
7.73926	0.662
7.77244	0.662
7.80562	0.646
7.83879	0.614
7.87197	0.593
7.90515	0.644
7.93833	0.673
7.9715	0.662
8.00468	0.632
8.03786	0.594
8.07103	0.502
8.10421	0.38
8.13739	0.24
8.17056	0.073
8.20374	0.048
8.23692	0.102
8.2701	0.2
8.30327	0.33
8.33645	0.424
8.36963	0.473
8.4028	0.524
8.43598	0.494
8.46916	0.492
8.50233	0.58
8.53551	0.662
8.56869	0.686
8.60187	0.704
8.63504	0.722
8.66822	0.737
8.7014	0.746
8.73457	0.753
8.76775	0.748
8.80093	0.718
8.8341	0.682
8.86728	0.677
8.90046	0.709
8.93364	0.725
8.96681	0.553
8.99999	0.426
9.03317	0.442
9.06634	0.593
9.09952	0.686
9.1327	0.736
9.16587	0.748
9.19905	0.754
9.23223	0.749
9.26541	0.732
9.29858	0.672
9.33176	0.558
9.36494	0.437
9.39811	0.462
9.43129	0.474
9.46447	0.461
9.49764	0.553
9.53082	0.662
9.564	0.706
9.59717	0.729
9.63035	0.742
9.66353	0.766
9.69671	0.777
9.72988	0.774
9.76306	0.77
9.79624	0.78
9.82941	0.792
9.86259	0.794
9.89577	0.794
9.92894	0.796
9.96212	0.802
9.9953	0.802
10.0285	0.802
10.0617	0.801
10.0948	0.802
10.128	0.801
10.1612	0.794
10.1944	0.774
10.2275	0.776
10.2607	0.793
10.2939	0.804
10.3271	0.805
10.3602	0.806
10.3934	0.809
10.4266	0.812
10.4598	0.826
10.493	0.834
10.5261	0.838
10.5593	0.838
10.5925	0.838
10.6257	0.838
10.6588	0.84
10.692	0.84
10.7252	0.841
10.7584	0.841
10.7915	0.841
10.8247	0.841
10.8579	0.841
10.8911	0.841
10.9243	0.841
10.9574	0.841
10.9906	0.84
11.0238	0.84
11.057	0.84
11.0901	0.84
11.1233	0.842
11.1565	0.844
11.1897	0.844
11.2228	0.844
11.256	0.845
11.2892	0.844
11.3224	0.841
11.3556	0.833
11.3887	0.825
11.4219	0.792
11.4551	0.71
11.4883	0.61
11.5214	0.705
11.5546	0.773
11.5878	0.768
11.621	0.737
11.6541	0.598
11.6873	0.377
11.7205	0.34
11.7537	0.466
11.7869	0.649
11.82	0.736
11.8532	0.769
11.8864	0.77
11.9196	0.76
11.9527	0.745
11.9859	0.741
12.0191	0.765
12.0523	0.784
12.0854	0.788
12.1186	0.792
12.1518	0.802
12.185	0.813
12.2182	0.82
12.2513	0.822
12.2845	0.826
12.3177	0.828
12.3509	0.828
12.384	0.828
12.4172	0.828
12.4504	0.828
12.4836	0.828
12.5167	0.829
12.5499	0.829
12.5831	0.829
12.6163	0.828
12.6495	0.828
12.6826	0.829
12.7158	0.828
12.749	0.824
12.7822	0.822
12.8153	0.814
12.8485	0.808
12.8817	0.798
12.9149	0.782
12.9481	0.746
12.9812	0.693
13.0144	0.572
13.0476	0.544
13.0808	0.602
13.1139	0.654
13.1471	0.694
13.1803	0.734
13.2135	0.753
13.2466	0.753
13.2798	0.74
13.313	0.662
13.3462	0.486
13.3794	0.466
13.4125	0.612
13.4457	0.661
13.4789	0.681
13.5121	0.714
13.5452	0.744
13.5784	0.768
13.6116	0.773
13.6448	0.773
13.6779	0.773
13.7111	0.773
13.7443	0.772
13.7775	0.773
13.8107	0.772
13.8438	0.772
13.877	0.772
13.9102	0.772
13.9434	0.77
13.9765	0.768
14.0097	0.768
14.0429	0.765
14.0761	0.76
14.1092	0.758
14.1424	0.754
14.1756	0.749
14.2088	0.745
14.242	0.74
14.2751	0.732
14.3083	0.714
14.3415	0.697
14.3747	0.668
14.4078	0.621
14.441	0.589
14.4742	0.586
14.5074	0.6
14.5405	0.622
14.5737	0.669
14.6069	0.681
14.6401	0.685
14.6733	0.685
14.7064	0.684
14.7396	0.682
14.7728	0.68
14.806	0.672
14.8391	0.658
14.8723	0.629
14.9055	0.608
14.9387	0.586
14.9718	0.6
15.005	0.62
15.0382	0.62
