Infrared Spectrum: P-NITRO CARBANILIC ACID, n-HEXYL ESTER
Formula: C13 H18 N2 O4
CAS: 87458-01-3
State: SOLID (1.5 mg / 100 mg KBr)
Melting point: 103 C
Class: COBLENTZ
Instrument: Not specified, most likely a grating spectrometer.
Sampling: TRANSMISSION
Resolution: 4
Origin: CITRUS EXPERIMENT STATION, UNIVERSITY OF FLORIDA (G. EDWARDS)
MICROMETERS	TRANSMITTANCE
2.073	0.741
2.10616	0.741
2.13932	0.741
2.17248	0.741
2.20564	0.742
2.2388	0.742
2.27195	0.742
2.30511	0.742
2.33827	0.742
2.37143	0.745
2.40459	0.745
2.43775	0.745
2.47091	0.745
2.50407	0.745
2.53723	0.743
2.57039	0.743
2.60355	0.743
2.6367	0.743
2.66986	0.743
2.70302	0.741
2.73618	0.739
2.76934	0.738
2.8025	0.735
2.83566	0.73
2.86882	0.726
2.90198	0.711
2.93514	0.409
2.96829	0.706
3.00145	0.737
3.03461	0.749
3.06777	0.75
3.10093	0.751
3.13409	0.749
3.16725	0.745
3.20041	0.743
3.23357	0.742
3.26673	0.742
3.29989	0.737
3.33304	0.67
3.3662	0.568
3.39936	0.612
3.43252	0.661
3.46568	0.641
3.49884	0.734
3.532	0.762
3.56516	0.767
3.59832	0.768
3.63148	0.77
3.66464	0.771
3.69779	0.771
3.73095	0.774
3.76411	0.775
3.79727	0.779
3.83043	0.78
3.86359	0.78
3.89675	0.78
3.92991	0.78
3.96307	0.78
3.99623	0.78
4.02938	0.78
4.06254	0.78
4.0957	0.788
4.12886	0.791
4.16202	0.791
4.19518	0.791
4.22834	0.794
4.2615	0.796
4.29466	0.796
4.32782	0.798
4.36098	0.798
4.39413	0.799
4.42729	0.799
4.46045	0.799
4.49361	0.8
4.52677	0.8
4.55993	0.8
4.59309	0.802
4.62625	0.802
4.65941	0.802
4.69257	0.8
4.72573	0.8
4.75888	0.8
4.79204	0.8
4.8252	0.802
4.85836	0.8
4.89152	0.8
4.92468	0.8
4.95784	0.802
4.991	0.8
5.02416	0.8
5.05732	0.803
5.09048	0.8
5.12363	0.8
5.15679	0.8
5.18995	0.802
5.22311	0.803
5.25627	0.8
5.28943	0.802
5.32259	0.8
5.35575	0.798
5.38891	0.795
5.42207	0.794
5.45522	0.792
5.48838	0.784
5.52154	0.779
5.5547	0.779
5.58786	0.778
5.62102	0.776
5.65418	0.742
5.68734	0.594
5.7205	0.456
5.75366	0.588
5.78682	0.703
5.81997	0.78
5.85313	0.79
5.88629	0.79
5.91945	0.791
5.95261	0.791
5.98577	0.791
6.01893	0.77
6.05209	0.768
6.08525	0.756
6.11841	0.743
6.15157	0.657
6.18472	0.467
6.21788	0.529
6.25104	0.548
6.2842	0.703
6.31736	0.695
6.35052	0.657
6.38368	0.472
6.41684	0.334
6.45	0.436
6.48316	0.545
6.51632	0.543
6.54947	0.411
6.58263	0.43
6.61579	0.585
6.64895	0.547
6.68211	0.621
6.71527	0.671
6.74843	0.65
6.78159	0.71
6.81475	0.75
6.84791	0.767
6.88106	0.767
6.91422	0.767
6.94738	0.778
6.98054	0.771
7.0137	0.682
7.04686	0.674
7.08002	0.754
7.11318	0.752
7.14634	0.75
7.1795	0.721
7.21266	0.721
7.24581	0.73
7.27897	0.737
7.31213	0.714
7.34529	0.661
7.37845	0.536
7.41161	0.374
7.44477	0.289
7.47793	0.164
7.51109	0.249
7.54425	0.322
7.57741	0.472
7.61056	0.407
7.64372	0.552
7.67688	0.634
7.71004	0.699
7.7432	0.713
7.77636	0.707
7.80952	0.694
7.84268	0.673
7.87584	0.649
7.909	0.686
7.94215	0.703
7.97531	0.673
8.00847	0.653
8.04163	0.589
8.07479	0.495
8.10795	0.426
8.14111	0.273
8.17427	0.154
8.20743	0.183
8.24059	0.256
8.27375	0.365
8.3069	0.462
8.34006	0.541
8.37322	0.592
8.40638	0.6
8.43954	0.594
8.4727	0.606
8.50586	0.693
8.53902	0.722
8.57218	0.737
8.60534	0.754
8.6385	0.767
8.67165	0.775
8.70481	0.779
8.73797	0.778
8.77113	0.77
8.80429	0.745
8.83745	0.722
8.87061	0.741
8.90377	0.741
8.93693	0.656
8.97009	0.581
9.00325	0.583
9.0364	0.592
9.06956	0.66
9.10272	0.742
9.13588	0.756
9.16904	0.755
9.2022	0.743
9.23536	0.711
9.26852	0.624
9.30168	0.548
9.33484	0.601
9.36799	0.653
9.40115	0.664
9.43431	0.707
9.46747	0.722
9.50063	0.709
9.53379	0.709
9.56695	0.735
9.60011	0.737
9.63327	0.702
9.66643	0.694
9.69959	0.75
9.73274	0.782
9.7659	0.796
9.79906	0.8
9.83222	0.8
9.86538	0.8
9.89854	0.799
9.9317	0.802
9.96486	0.811
9.99802	0.815
10.0312	0.819
10.0643	0.824
10.0975	0.827
10.1307	0.827
10.1638	0.827
10.197	0.827
10.2301	0.826
10.2633	0.82
10.2964	0.808
10.3296	0.803
10.3628	0.812
10.3959	0.814
10.4291	0.826
10.4622	0.836
10.4954	0.841
10.5286	0.841
10.5617	0.843
10.5949	0.843
10.628	0.843
10.6612	0.843
10.6944	0.843
10.7275	0.843
10.7607	0.845
10.7938	0.847
10.827	0.847
10.8602	0.847
10.8933	0.847
10.9265	0.847
10.9596	0.847
10.9928	0.845
11.0259	0.845
11.0591	0.841
11.0923	0.841
11.1254	0.841
11.1586	0.843
11.1917	0.841
11.2249	0.844
11.2581	0.845
11.2912	0.844
11.3244	0.843
11.3575	0.836
11.3907	0.823
11.4239	0.787
11.457	0.69
11.4902	0.714
11.5233	0.78
11.5565	0.796
11.5897	0.79
11.6228	0.727
11.656	0.579
11.6891	0.454
11.7223	0.486
11.7554	0.645
11.7886	0.754
11.8218	0.787
11.8549	0.791
11.8881	0.786
11.9212	0.78
11.9544	0.779
11.9876	0.787
12.0207	0.804
12.0539	0.815
12.087	0.815
12.1202	0.818
12.1534	0.832
12.1865	0.835
12.2197	0.839
12.2528	0.84
12.286	0.841
12.3192	0.843
12.3523	0.844
12.3855	0.844
12.4186	0.844
12.4518	0.844
12.4849	0.844
12.5181	0.843
12.5513	0.843
12.5844	0.843
12.6176	0.841
12.6507	0.84
12.6839	0.839
12.7171	0.836
12.7502	0.835
12.7834	0.832
12.8165	0.831
12.8497	0.827
12.8829	0.811
12.916	0.787
12.9492	0.735
12.9823	0.657
13.0155	0.604
13.0487	0.652
13.0818	0.71
13.115	0.75
13.1481	0.78
13.1813	0.782
13.2144	0.78
13.2476	0.763
13.2808	0.729
13.3139	0.646
13.3471	0.532
13.3802	0.614
13.4134	0.741
13.4466	0.783
13.4797	0.794
13.5129	0.795
13.546	0.795
13.5792	0.795
13.6124	0.794
13.6455	0.794
13.6787	0.791
13.7118	0.782
13.745	0.764
13.7782	0.76
13.8113	0.77
13.8445	0.787
13.8776	0.792
13.9108	0.795
13.9439	0.795
13.9771	0.795
14.0103	0.795
14.0434	0.795
14.0766	0.792
14.1097	0.79
14.1429	0.788
14.1761	0.79
14.2092	0.787
14.2424	0.778
14.2755	0.766
14.3087	0.754
14.3419	0.735
14.375	0.707
14.4082	0.673
14.4413	0.669
14.4745	0.678
14.5077	0.693
14.5408	0.715
14.574	0.739
14.6071	0.741
14.6403	0.741
14.6734	0.739
14.7066	0.739
14.7398	0.737
14.7729	0.737
14.8061	0.727
14.8392	0.715
14.8724	0.697
14.9056	0.678
14.9387	0.679
14.9719	0.702
15.005	0.702
