Infrared Spectrum: 1-Cyclopentyl-2-propen-1-ol
Formula: C 8 H 14 O
CAS: 87453-54-1
State: gas
Instrument: HP-GC/MS/IRD
Origin: NIST Mass Spectrometry Data Center
1/CM	ABSORBANCE
550	0.001197
562	0.000258
574	0.000288
586	0.000378
598	0.000348
610	0.000393
622	0.000363
634	0.000306
646	0.000252
658	0.000297
670	0.000441
682	0.000531
694	0.000567
706	0.00042
718	0.000342
730	0.000243
742	0.000189
754	0.000261
766	0.000219
778	0.000216
790	0.000126
802	8.4e-05
814	0.000162
826	0.000195
838	0.000327
850	0.000438
862	0.000537
874	0.000771
886	0.001464
898	0.00249
910	0.004569
922	0.0081
934	0.006954
946	0.003489
958	0.002415
970	0.003114
982	0.005655
994	0.007659
1006	0.0075
1018	0.00777
1030	0.006909
1042	0.004581
1054	0.003267
1066	0.003204
1078	0.003219
1090	0.003156
1102	0.003231
1114	0.003357
1126	0.003033
1138	0.002286
1150	0.001905
1162	0.001959
1174	0.001893
1186	0.001821
1198	0.00195
1210	0.002289
1222	0.002703
1234	0.002919
1246	0.002781
1258	0.00264
1270	0.002541
1282	0.002502
1294	0.002418
1306	0.002373
1318	0.002304
1330	0.002076
1342	0.001884
1354	0.001884
1366	0.001881
1378	0.001605
1390	0.00135
1402	0.001554
1414	0.0024
1426	0.002658
1438	0.002133
1450	0.001932
1462	0.001686
1474	0.001173
1486	0.000786
1498	0.000459
1510	0.000261
1522	0.000165
1534	9e-05
1546	6.9e-05
1558	3.9e-05
1570	3e-05
1582	5.1e-05
1594	9e-05
1606	0.000102
1618	0.000201
1630	0.000477
1642	0.000675
1654	0.000417
1666	0.000129
1678	3.9e-05
1690	0
1702	5.7e-05
1714	4.8e-05
1726	7.2e-05
1738	9e-05
1750	0.000228
1762	0.000363
1774	0.00042
1786	0.000282
1798	0.000141
1810	9e-05
1822	0.000111
1834	0.0003
1846	0.000591
1858	0.000585
1870	0.000264
1882	9.6e-05
1894	6.3e-05
1906	9e-05
1918	8.1e-05
1930	6.3e-05
1942	6.6e-05
1954	8.1e-05
1966	0.000132
1978	0.000117
1990	9e-05
2002	7.5e-05
2014	9e-05
2026	0.000108
2038	9.9e-05
2050	0.000102
2062	7.5e-05
2074	0.000102
2086	7.8e-05
2098	9e-05
2110	0.000105
2122	0.000102
2134	9.3e-05
2146	0.000117
2158	0.000123
2170	0.000135
2182	0.000126
2194	0.000147
2206	0.000129
2218	0.000126
2230	0.000108
2242	0.000117
2254	0.000114
2266	0.00012
2278	0.000141
2290	0.00012
2302	0.000126
2314	0.000144
2326	0.000156
2338	0.000162
2350	0.000174
2362	0.000147
2374	0.000135
2386	0.000138
2398	0.000123
2410	0.000126
2422	0.000126
2434	0.000111
2446	0.000111
2458	0.000108
2470	8.4e-05
2482	0.000123
2494	9.3e-05
2506	0.000102
2518	9.3e-05
2530	0.000132
2542	0.000123
2554	0.000114
2566	0.000162
2578	0.00018
2590	0.000222
2602	0.000231
2614	0.00024
2626	0.000204
2638	0.000207
2650	0.000222
2662	0.000183
2674	0.000225
2686	0.000234
2698	0.000234
2710	0.000306
2722	0.000264
2734	0.000351
2746	0.000309
2758	0.000369
2770	0.000441
2782	0.000501
2794	0.000702
2806	0.000909
2818	0.001293
2830	0.002103
2842	0.0036
2854	0.005985
2866	0.010152
2878	0.013695
2890	0.012348
2902	0.01047
2914	0.01119
2926	0.012714
2938	0.016032
2950	0.024138
2962	0.03
2974	0.020535
2986	0.009969
2998	0.005409
3010	0.00372
3022	0.002694
3034	0.001785
3046	0.001284
3058	0.001245
3070	0.001806
3082	0.002916
3094	0.002754
3106	0.001266
3118	0.000501
3130	0.000324
3142	0.000297
3154	0.000216
3166	0.00021
3178	0.000198
3190	0.000159
3202	0.000159
3214	0.000171
3226	0.000171
3238	0.000183
3250	0.000123
3262	0.00018
3274	8.1e-05
3286	0.000135
3298	0.000135
3310	0.000174
3322	0.000144
3334	0.000141
3346	0.000234
3358	0.000174
3370	0.000201
3382	0.000225
3394	0.000198
3406	0.000255
3418	0.000291
3430	0.00021
3442	0.000249
3454	0.000294
3466	0.000276
3478	0.000348
3490	0.0003
3502	0.000291
3514	0.000333
3526	0.000294
3538	0.000324
3550	0.000309
3562	0.000402
3574	0.000447
3586	0.000456
3598	0.000426
3610	0.00051
3622	0.000816
3634	0.001734
3646	0.002823
3658	0.002358
3670	0.001044
3682	0.000585
3694	0.000441
3706	0.000381
3718	0.000345
3730	0.000363
3742	0.000333
3754	0.000354
3766	0.000378
3778	0.000396
3790	0.000363
3802	0.000417
3814	0.000384
3826	0.000447
3838	0.000441
