Infrared Spectrum: 4-Hydroxy-3-methylacetophenone
Formula: C 9 H 10 O 2
CAS: 876-02-8
State: gas
Origin: EPA-IR VAPOR PHASE LIBRARY
1/CM	ABSORBANCE
501.5	0.0011
513.074	0.00126
524.648	0.00154
536.222	0.00317
547.796	0.00563
559.37	0.00337
570.944	0.00333
582.518	0.00591
594.092	0.0066
605.666	0.00458
617.24	0.00388
628.814	0.00224
640.388	0.00108
651.962	0.0007924
663.536	0.0005635
675.11	0.0006904
686.684	0.000593
698.258	0.0003332
709.832	0.0004661
721.406	0.0007689
732.98	0.00077
744.554	0.00107
756.128	0.00304
767.702	0.00298
779.276	0.00122
790.85	0.00228
802.423	0.00518
813.997	0.00672
825.571	0.00532
837.145	0.00293
848.719	0.00136
860.293	0.00116
871.867	0.00204
883.441	0.00312
895.015	0.00291
906.589	0.00265
918.163	0.00193
929.737	0.00171
941.311	0.00281
952.885	0.00557
964.459	0.00637
976.033	0.00408
987.607	0.0025
999.181	0.0021
1010.76	0.00187
1022.33	0.00187
1033.9	0.00191
1045.48	0.00185
1057.05	0.00206
1068.63	0.00304
1080.2	0.00425
1091.77	0.00669
1103.35	0.01639
1114.92	0.02375
1126.49	0.01316
1138.07	0.00646
1149.64	0.00837
1161.22	0.01248
1172.79	0.01442
1184.36	0.02434
1195.94	0.03852
1207.51	0.01736
1219.09	0.00654
1230.66	0.00641
1242.23	0.0096
1253.81	0.02303
1265.38	0.05476
1276.96	0.05778
1288.53	0.03139
1300.1	0.01259
1311.68	0.00601
1323.25	0.00827
1334.83	0.00794
1346.4	0.00976
1357.97	0.01606
1369.55	0.01073
1381.12	0.00529
1392.7	0.00472
1404.27	0.00651
1415.84	0.00828
1427.42	0.00607
1438.99	0.00468
1450.57	0.00452
1462.14	0.00421
1473.71	0.00384
1485.29	0.00595
1496.86	0.01295
1508.44	0.01161
1520.01	0.00441
1531.58	0.0027
1543.16	0.00258
1554.73	0.00343
1566.31	0.00581
1577.88	0.01193
1589.45	0.01933
1601.03	0.02191
1612.6	0.01689
1624.18	0.00697
1635.75	0.00351
1647.32	0.00368
1658.9	0.00463
1670.47	0.00596
1682.05	0.01345
1693.62	0.03982
1705.19	0.04165
1716.77	0.01135
1728.34	0.0035
1739.92	0.00299
1751.49	0.00294
1763.06	0.00192
1774.64	0.00114
1786.21	0.0008645
1797.79	0.0008022
1809.36	0.0006935
1820.93	0.0006475
1832.51	0.000675
1844.08	0.0007566
1855.66	0.0006996
1867.23	0.0006558
1878.8	0.0007543
1890.38	0.0006902
1901.95	0.0005999
1913.53	0.0006115
1925.1	0.0006458
1936.67	0.0006223
1948.25	0.0005712
1959.82	0.0005307
1971.4	0.0004702
1982.97	0.0004197
1994.54	0.0003994
2006.12	0.0004396
2017.69	0.0005258
2029.27	0.0006036
2040.84	0.0005636
2052.41	0.0004037
2063.99	0.0003174
2075.56	0.0003042
2087.14	0.0003103
2098.71	0.0003191
2110.28	0.0002745
2121.86	0.0002961
2133.43	0.0003126
2145.01	0.0003538
2156.58	0.0003853
2168.15	0.0003592
2179.73	0.0003497
2191.3	0.0003427
2202.88	0.0003
2214.45	0.0003348
2226.02	0.0003784
2237.6	0.0004337
2249.17	0.0004952
2260.74	0.0005427
2272.32	0.0005069
2283.89	0.0004237
2295.47	0.0004447
2307.04	0.0004607
2318.61	0.0004953
2330.19	0.0004228
2341.76	0.0004411
2353.34	0.0005215
2364.91	0.0005673
2376.48	0.000555
2388.06	0.0004865
2399.63	0.0004358
2411.21	0.0004601
2422.78	0.000473
2434.35	0.000565
2445.93	0.000606
2457.5	0.0006158
2469.08	0.0007196
2480.65	0.0007496
2492.22	0.0007509
2503.8	0.000672
2515.37	0.0006293
2526.95	0.0005956
2538.52	0.0006044
2550.09	0.0006212
2561.67	0.0006094
2573.24	0.0005868
2584.82	0.0005316
2596.39	0.0005026
2607.96	0.0005682
2619.54	0.0006405
2631.11	0.0006268
2642.69	0.0006377
2654.26	0.0006817
2665.83	0.0005838
2677.41	0.0005273
2688.98	0.0004841
2700.56	0.0004634
2712.13	0.0004739
2723.7	0.0004947
2735.28	0.0005228
2746.85	0.0006757
2758.43	0.0006209
2770	0.0004929
2781.57	0.0005001
2793.15	0.0005514
2804.72	0.0006021
2816.3	0.0006482
2827.87	0.0008081
2839.44	0.00104
2851.02	0.00148
2862.59	0.00214
2874.17	0.00282
2885.74	0.00297
2897.31	0.00286
2908.89	0.00311
2920.46	0.00418
2932.04	0.0056
2943.61	0.00518
2955.18	0.00376
2966.76	0.00361
2978.33	0.00379
2989.91	0.00361
3001.48	0.00352
3013.05	0.00401
3024.63	0.00426
3036.2	0.00405
3047.78	0.00347
3059.35	0.00352
3070.92	0.00312
3082.5	0.0025
3094.07	0.00173
3105.65	0.00139
3117.22	0.00117
3128.79	0.000927
3140.37	0.000705
3151.94	0.0006515
3163.52	0.000548
3175.09	0.0005131
3186.66	0.0005941
3198.24	0.000589
3209.81	0.000533
3221.39	0.0004724
3232.96	0.000385
3244.53	0.0004958
3256.11	0.0004481
3267.68	0.0004194
3279.26	0.0004287
3290.83	0.0004162
3302.4	0.0004926
3313.98	0.0005881
3325.55	0.0006047
3337.13	0.0006566
3348.7	0.0007496
3360.27	0.0008335
3371.85	0.00117
3383.42	0.00129
3395	0.0009336
3406.57	0.0006699
3418.14	0.0005558
3429.72	0.0005263
3441.29	0.0005116
3452.86	0.0004214
3464.44	0.0004333
3476.01	0.0004207
3487.59	0.0004074
3499.16	0.0003124
3510.73	0.00036
3522.31	0.0003802
3533.88	0.0003389
3545.46	0.0004834
3557.03	0.0003345
3568.6	0.000447
3580.18	0.0004205
3591.75	0.0005799
3603.33	0.0007496
3614.9	0.00133
3626.47	0.0037
3638.05	0.01406
3649.62	0.01956
3661.2	0.0066
3672.77	0.00133
3684.34	0.0006401
3695.92	0.0005429
3707.49	0.0004001
3719.07	0.0003914
3730.64	0.0003122
3742.21	0.0003145
3753.79	0.0003112
3765.36	0.0003345
3776.94	0.0003735
3788.51	0.0003826
3800.08	0.0003935
3811.66	0.0003724
3823.23	0.0004416
3834.81	0.0004079
3846.38	0.0004182
3857.95	0.0004046
3869.53	0.0004013
3881.1	0.0003875
3892.68	0.0003665
3904.25	0.0005069
3915.82	0.0004051
3927.4	0.0005138
3938.97	0.0004195
3950.55	0.0005694
3962.12	0.0004977
3973.69	0.0004458
3985.27	0.0004253
3996.84	0.0003525
