Infrared Spectrum: N-Triisopropylsilylpyrrole
Formula: C 13 H 25 N Si
CAS: 87630-35-1
State: gas
Origin: EPA-IR VAPOR PHASE LIBRARY
1/CM	ABSORBANCE
549.8	0.008196
559.445	0.012216
569.09	0.018296
578.735	0.020806
588.38	0.018016
598.025	0.017596
607.67	0.017726
617.315	0.014916
626.96	0.016376
636.605	0.025546
646.251	0.041216
655.896	0.045706
665.541	0.040506
675.186	0.040946
684.831	0.030686
694.476	0.015146
704.121	0.010326
713.766	0.018646
723.411	0.060466
733.056	0.049466
742.701	0.012956
752.346	0.006886
761.991	0.004316
771.636	0.003026
781.281	0.002686
790.926	0.002586
800.571	0.002046
810.216	0.0014974
819.861	0.0013977
829.507	0.0015538
839.152	0.002066
848.797	0.003176
858.442	0.006736
868.087	0.018916
877.732	0.034896
887.377	0.023286
897.022	0.007986
906.667	0.004616
916.312	0.005876
925.957	0.007856
935.602	0.005536
945.247	0.003506
954.892	0.002676
964.537	0.003006
974.182	0.004026
983.827	0.007136
993.472	0.012436
1003.12	0.014726
1012.76	0.016276
1022.41	0.014566
1032.05	0.013226
1041.7	0.039426
1051.34	0.040466
1060.99	0.026636
1070.63	0.054086
1080.28	0.098806
1089.92	0.038196
1099.57	0.006956
1109.21	0.002956
1118.86	0.001776
1128.5	0.0016057
1138.15	0.0015316
1147.79	0.002016
1157.44	0.003846
1167.08	0.012636
1176.73	0.050926
1186.37	0.062986
1196.02	0.017056
1205.66	0.008886
1215.31	0.012146
1224.95	0.009816
1234.6	0.007046
1244.24	0.008276
1253.89	0.008686
1263.53	0.006486
1273.18	0.003946
1282.82	0.003906
1292.47	0.004156
1302.11	0.003056
1311.76	0.002476
1321.4	0.001866
1331.05	0.001716
1340.69	0.0015984
1350.34	0.001816
1359.98	0.002496
1369.63	0.004226
1379.27	0.006716
1388.92	0.011216
1398.56	0.008066
1408.21	0.004336
1417.85	0.005006
1427.5	0.006576
1437.14	0.008506
1446.79	0.016996
1456.43	0.032306
1466.08	0.039706
1475.73	0.032756
1485.37	0.014516
1495.02	0.006516
1504.66	0.004676
1514.31	0.004236
1523.95	0.004466
1533.6	0.005206
1543.24	0.007056
1552.89	0.012096
1562.53	0.010196
1572.18	0.005366
1581.82	0.002496
1591.47	0.001756
1601.11	0.0016041
1610.76	0.0014608
1620.4	0.0014088
1630.05	0.0013058
1639.69	0.0012697
1649.34	0.0012705
1658.98	0.0012616
1668.63	0.001316
1678.27	0.0016056
1687.92	0.002256
1697.56	0.001826
1707.21	0.001304
1716.85	0.002176
1726.5	0.002516
1736.14	0.0011551
1745.79	0.00068266
1755.43	0.000535
1765.08	0.000528
1774.72	0.0005561
1784.37	0.000452
1794.01	0.000444
1803.66	0.000516
1813.3	0.000494
1822.95	0.000416
1832.59	0.000429
1842.24	0.000393
1851.88	0.000386
1861.53	0.000413
1871.17	0.000539
1880.82	0.0005693
1890.46	0.000494
1900.11	0.000462
1909.75	0.000421
1919.4	0.00042
1929.04	0.000403
1938.69	0.000488
1948.33	0.000378
1957.98	0.000357
1967.62	0.000379
1977.27	0.000473
1986.91	0.00047
1996.56	0.000392
2006.2	0.000477
2015.85	0.00043
2025.49	0.000402
2035.14	0.000305
2044.78	0.000334
2054.43	0.000316
2064.07	0.000311
2073.72	0.000323
2083.36	0.000457
2093.01	0.000463
2102.65	0.000516
2112.3	0.00069025
2121.94	0.000786
2131.59	0.000514
2141.23	0.000412
2150.88	0.000425
2160.52	0.000387
2170.17	0.000289
2179.81	0.000381
2189.46	0.000358
2199.1	0.000501
2208.75	0.000445
2218.39	0.00069909
2228.04	0.00069955
2237.68	0.00074456
2247.33	0.0007761
2256.97	0.00072091
2266.62	0.00069605
2276.26	0.0006263
2285.91	0.000647482
2295.55	0.0005492
2305.2	0.00046
2314.84	0.000449
2324.49	0.000398
2334.13	0.000555
2343.78	0.000523
2353.42	0.000507
2363.07	0.0005613
2372.72	0.0005996
2382.36	0.00074361
2392.01	0.0008199
2401.65	0.0007821
2411.3	0.0009283
2420.94	0.0011663
2430.59	0.0014014
2440.23	0.0013277
2449.88	0.0011408
2459.52	0.0010629
2469.17	0.0010344
2478.81	0.0008423
2488.46	0.0008939
2498.1	0.0010847
2507.75	0.00127
2517.39	0.0011482
2527.04	0.0009042
2536.68	0.000988
2546.33	0.0009403
2555.97	0.0009187
2565.62	0.0011018
2575.26	0.0011411
2584.91	0.0010198
2594.55	0.0009796
2604.2	0.0008965
2613.84	0.0008255
2623.49	0.0009495
2633.13	0.0009634
2642.78	0.0009486
2652.42	0.0008494
2662.07	0.0008743
2671.71	0.0009068
2681.36	0.0010682
2691	0.0012772
2700.65	0.0013365
2710.29	0.001706
2719.94	0.002556
2729.58	0.003926
2739.23	0.004176
2748.87	0.003506
2758.52	0.003206
2768.16	0.003686
2777.81	0.003556
2787.45	0.003336
2797.1	0.003546
2806.74	0.004246
2816.39	0.005236
2826.03	0.006596
2835.68	0.009226
2845.32	0.015716
2854.97	0.026666
2864.61	0.045526
2874.26	0.080336
2883.9	0.080526
2893.55	0.052476
2903.19	0.049596
2912.84	0.050386
2922.48	0.054156
2932.13	0.067446
2941.77	0.080116
2951.42	0.094316
2961.06	0.082636
2970.71	0.065296
2980.35	0.046776
2990	0.023386
2999.64	0.012326
3009.29	0.008276
3018.93	0.006406
3028.58	0.005406
3038.22	0.004586
3047.87	0.004096
3057.51	0.003846
3067.16	0.003646
3076.8	0.003586
3086.45	0.003796
3096.09	0.004796
3105.74	0.007216
3115.38	0.009126
3125.03	0.007906
3134.67	0.006686
3144.32	0.004546
3153.96	0.003096
3163.61	0.002286
3173.25	0.001876
3182.9	0.001627
3192.54	0.0014266
3202.19	0.0013962
3211.83	0.0008996
3221.48	0.00073303
3231.12	0.00074171
3240.77	0.00071283
3250.41	0.000481
3260.06	0.000453
3269.7	0.000423
3279.35	0.000279
3289	0.00043
3298.64	0.000329
3308.29	0.000316
3317.93	0.000267
3327.58	0.000496
3337.22	0.00038
3346.87	0.000445
3356.51	0.00037
3366.16	0.000462
3375.8	0.000443
3385.45	0.0003
3395.09	0.000424
3404.74	0.000316
3414.38	0.000371
3424.03	0.0003
3433.67	0.000296
3443.32	0.000255
3452.96	0.000246
3462.61	0.000162
3472.25	6.4e-05
3481.9	0.000163
3491.54	0.000114
3501.19	0.000125
3510.83	0.000306
3520.48	0.000277
3530.12	0.000283
3539.77	0.000109
3549.41	0.000123
3559.06	0.000326
3568.7	0.000159
3578.35	0.000312
3587.99	0.000158
3597.64	4.6e-05
3607.28	0.000314
3616.93	0.000295
3626.57	0.000189
3636.22	0.000164
3645.86	0.000125
3655.51	0.000151
3665.15	0.000125
3674.8	0.000121
3684.44	0.000364
3694.09	0.000148
3703.73	0.000208
3713.38	0.000352
3723.02	0.000213
3732.67	0.000271
3742.31	0.000338
3751.96	0.000368
3761.6	0.000407
3771.25	0.000413
3780.89	0.00024
3790.54	0.000533
3800.18	0.000534
3809.83	0.0005616
3819.47	0.000464
3829.12	0.0005653
3838.76	0.0006266
3848.41	0.0008379
3858.05	0.0007573
3867.7	0.0007251
3877.34	0.000472
3886.99	0.000492
3896.63	0.000488
3906.28	0.000571
3915.92	0.000443
3925.57	0.000356
3935.21	0.000242
3944.86	0.000457
3954.5	0.000495
3964.15	0.0006187
3973.79	0.0009525
3983.44	0.0012318
3993.08	0.0010471
