Infrared Spectrum: P-XYLENE, 2,3,5,6-TETRACHLORO
Formula: C8 H6 Cl4
CAS: 877-10-1
State: SOLID (KBr PELLET)
Melting point: 223 C
Class: COBLENTZ
Instrument: Not specified, most likely a prism, grating, or hybrid spectrometer.
Sampling: TRANSMISSION
Resolution: 4
Origin: TENNESSEE EASTMAN COMPANY, RESEARCH LABORATORIES
MICROMETERS	TRANSMITTANCE
2.02	0.533
2.05972	0.537
2.09943	0.547
2.13915	0.562
2.17887	0.573
2.21859	0.583
2.2583	0.59
2.29802	0.6
2.33774	0.615
2.37745	0.625
2.41717	0.635
2.45689	0.641
2.49661	0.651
2.53632	0.663
2.57604	0.673
2.61576	0.678
2.65548	0.681
2.69519	0.689
2.73491	0.689
2.77463	0.681
2.81434	0.674
2.85406	0.666
2.89378	0.66
2.9335	0.665
2.97321	0.683
3.01293	0.708
3.05265	0.719
3.09236	0.739
3.13208	0.754
3.1718	0.762
3.21152	0.771
3.25123	0.781
3.29095	0.779
3.33067	0.749
3.37039	0.585
3.4101	0.631
3.44982	0.713
3.48954	0.733
3.52925	0.807
3.56897	0.822
3.60869	0.834
3.64841	0.835
3.68812	0.844
3.72784	0.847
3.76756	0.849
3.80727	0.855
3.84699	0.857
3.88671	0.864
3.92643	0.868
3.96614	0.872
4.00586	0.875
4.04558	0.877
4.0853	0.878
4.12501	0.882
4.16473	0.887
4.20445	0.893
4.24416	0.898
4.28388	0.898
4.3236	0.898
4.36332	0.9
4.40303	0.908
4.44275	0.912
4.48247	0.912
4.52218	0.913
4.5619	0.917
4.60162	0.922
4.64134	0.925
4.68105	0.927
4.72077	0.928
4.76049	0.93
4.8002	0.93
4.83992	0.93
4.87964	0.932
4.91936	0.933
4.95907	0.935
4.99879	0.94
5.03851	0.938
5.07823	0.938
5.11794	0.941
5.15766	0.941
5.19738	0.94
5.23709	0.936
5.27681	0.943
5.31653	0.945
5.35625	0.945
5.39596	0.943
5.43568	0.94
5.4754	0.941
5.51511	0.945
5.55483	0.946
5.59455	0.946
5.63427	0.945
5.67398	0.941
5.7137	0.93
5.75342	0.925
5.79314	0.928
5.83285	0.922
5.87257	0.928
5.91229	0.915
5.952	0.915
5.99172	0.91
6.03144	0.91
6.07116	0.882
6.11087	0.88
6.15059	0.887
6.19031	0.89
6.23002	0.898
6.26974	0.908
6.30946	0.908
6.34918	0.9
6.38889	0.89
6.42861	0.875
6.46833	0.865
6.50804	0.859
6.54776	0.844
6.58748	0.83
6.6272	0.807
6.66691	0.794
6.70663	0.751
6.74635	0.721
6.78607	0.663
6.82578	0.626
6.8655	0.55
6.90522	0.507
6.94493	0.51
6.98465	0.545
7.02437	0.558
7.06409	0.439
7.1038	0.232
7.14352	0.522
7.18324	0.542
7.22295	0.383
7.26267	0.424
7.30239	0.507
7.34211	0.411
7.38182	0.208
7.42154	0.109
7.46126	0.421
7.50098	0.625
7.54069	0.686
7.58041	0.708
7.62013	0.708
7.65984	0.419
7.69956	0.558
7.73928	0.683
7.779	0.714
7.81871	0.731
7.85843	0.737
7.89815	0.734
7.93786	0.739
7.97758	0.744
8.0173	0.744
8.05702	0.746
8.09673	0.747
8.13645	0.749
8.17617	0.749
8.21589	0.746
8.2556	0.744
8.29532	0.739
8.33504	0.736
8.37475	0.734
8.41447	0.731
8.45419	0.728
8.49391	0.724
8.53362	0.713
8.57334	0.668
8.61306	0.648
8.65277	0.678
8.69249	0.674
8.73221	0.475
8.77193	0.084
8.81164	0.262
8.85136	0.529
8.89108	0.645
8.93079	0.658
8.97051	0.676
9.01023	0.686
9.04995	0.689
9.08966	0.693
9.12938	0.693
9.1691	0.694
9.20882	0.694
9.24853	0.694
9.28825	0.694
9.32797	0.694
9.36768	0.693
9.4074	0.683
9.44712	0.678
9.48684	0.673
9.52655	0.658
9.56627	0.636
9.60599	0.61
9.6457	0.588
9.68542	0.568
9.72514	0.548
9.76486	0.502
9.80457	0.429
9.84429	0.373
9.88401	0.376
9.92373	0.412
9.96344	0.399
10.0032	0.398
10.0429	0.452
10.0826	0.525
10.1223	0.577
10.162	0.623
10.2017	0.651
10.2415	0.676
10.2812	0.691
10.3209	0.698
10.3606	0.716
10.4003	0.718
10.44	0.721
10.4798	0.721
10.5195	0.719
10.5592	0.711
10.5989	0.711
10.6386	0.711
10.6784	0.711
10.7181	0.714
10.7578	0.719
10.7975	0.723
10.8372	0.729
10.8769	0.737
10.9167	0.747
10.9564	0.756
10.9961	0.757
11.0358	0.759
11.0755	0.762
11.1152	0.762
11.155	0.764
11.1947	0.766
11.2344	0.767
11.2741	0.767
11.3138	0.767
11.3535	0.766
11.3933	0.767
11.433	0.766
11.4727	0.766
11.5124	0.766
11.5521	0.766
11.5918	0.766
11.6316	0.766
11.6713	0.769
11.711	0.771
11.7507	0.772
11.7904	0.776
11.8302	0.776
11.8699	0.776
11.9096	0.776
11.9493	0.776
11.989	0.776
12.0287	0.772
12.0685	0.764
12.1082	0.764
12.1479	0.746
12.1876	0.645
12.2273	0.5
12.267	0.588
12.3068	0.701
12.3465	0.733
12.3862	0.749
12.4259	0.756
12.4656	0.761
12.5053	0.759
12.5451	0.759
12.5848	0.761
12.6245	0.761
12.6642	0.761
12.7039	0.767
12.7436	0.771
12.7834	0.772
12.8231	0.772
12.8628	0.771
12.9025	0.766
12.9422	0.769
12.982	0.777
13.0217	0.779
13.0614	0.782
13.1011	0.784
13.1408	0.784
13.1805	0.786
13.2203	0.786
13.26	0.787
13.2997	0.789
13.3394	0.789
13.3791	0.787
13.4188	0.786
13.4586	0.784
13.4983	0.784
13.538	0.787
13.5777	0.789
13.6174	0.792
13.6571	0.794
13.6969	0.794
13.7366	0.796
13.7763	0.796
13.816	0.797
13.8557	0.797
13.8954	0.797
13.9352	0.799
13.9749	0.799
14.0146	0.8
14.0543	0.804
14.094	0.809
14.1337	0.809
14.1735	0.807
14.2132	0.807
14.2529	0.807
14.2926	0.805
14.3323	0.807
14.3721	0.809
14.4118	0.812
14.4515	0.815
14.4912	0.815
14.5309	0.817
14.5706	0.819
14.6104	0.817
14.6501	0.819
14.6898	0.819
14.7295	0.819
14.7692	0.817
14.8089	0.817
14.8487	0.809
14.8884	0.796
14.9281	0.759
14.9678	0.631
15.0075	0.454
15.0472	0.316
15.087	0.268
15.1267	0.283
15.1664	0.371
15.2061	0.495
15.2458	0.595
15.2855	0.666
15.3253	0.699
15.365	0.713
15.4047	0.723
15.4444	0.728
15.4841	0.728
15.5239	0.728
15.5636	0.728
15.6033	0.724
15.643	0.719
15.6827	0.709
15.7224	0.704
15.7622	0.698
15.8019	0.681
15.8416	0.676
15.8813	0.671
15.921	0.668
15.9607	0.665
