Infrared Spectrum: 6-Bromoquinaldine
Formula: C 10 H 8 Br N
CAS: 877-42-9
State: gas
Origin: EPA-IR VAPOR PHASE LIBRARY
1/CM	ABSORBANCE
549.8	0.0012184
559.445	0.000784
569.09	0.00031684
578.734	0.0008002
588.379	0.000726
598.024	0.00141
607.669	0.0010373
617.313	0.00227
626.958	0.00593
636.603	0.00701
646.248	0.0056
655.893	0.00329
665.537	0.00142
675.182	0.0008058
684.827	0.0010441
694.472	0.00193
704.116	0.00211
713.761	0.00817
723.406	0.02267
733.051	0.0032
742.695	0.00163
752.34	0.00136
761.985	0.00231
771.63	0.00378
781.275	0.01176
790.919	0.03046
800.564	0.0414
810.209	0.02898
819.854	0.03957
829.498	0.06442
839.143	0.03904
848.788	0.01317
858.433	0.01184
868.078	0.02191
877.722	0.02739
887.367	0.04684
897.012	0.02281
906.657	0.0033
916.301	0.00275
925.946	0.00314
935.591	0.00572
945.236	0.02108
954.88	0.00901
964.525	0.00551
974.17	0.00445
983.815	0.00322
993.46	0.0039
1003.1	0.0068
1012.75	0.00674
1022.39	0.00441
1032.04	0.00525
1041.68	0.00977
1051.33	0.02388
1060.97	0.03073
1070.62	0.01725
1080.26	0.0053
1089.91	0.00339
1099.55	0.00434
1109.2	0.00937
1118.84	0.01115
1128.49	0.00639
1138.13	0.00292
1147.78	0.00346
1157.42	0.00412
1167.07	0.00809
1176.71	0.0188
1186.36	0.01957
1196	0.01031
1205.64	0.00959
1215.29	0.01933
1224.93	0.01544
1234.58	0.00752
1244.22	0.00634
1253.87	0.0042
1263.51	0.00376
1273.16	0.0044
1282.8	0.01123
1292.45	0.03581
1302.09	0.05598
1311.74	0.03247
1321.38	0.01367
1331.03	0.01379
1340.67	0.00994
1350.32	0.00908
1359.96	0.01576
1369.61	0.01877
1379.25	0.02409
1388.9	0.01402
1398.54	0.0079
1408.18	0.00668
1417.83	0.00643
1427.47	0.00726
1437.12	0.00994
1446.76	0.01062
1456.41	0.01427
1466.05	0.01884
1475.7	0.04309
1485.34	0.09711
1494.99	0.05118
1504.63	0.02778
1514.28	0.0172
1523.92	0.01542
1533.57	0.01355
1543.21	0.01715
1552.86	0.02586
1562.5	0.02209
1572.15	0.01582
1581.79	0.0407
1591.44	0.1008
1601.08	0.10163
1610.73	0.0359
1620.37	0.0172
1630.01	0.00772
1639.66	0.0049
1649.3	0.00405
1658.95	0.00386
1668.59	0.00386
1678.24	0.00345
1687.88	0.00313
1697.53	0.00279
1707.17	0.00269
1716.82	0.00309
1726.46	0.00372
1736.11	0.00375
1745.75	0.00434
1755.4	0.00447
1765.04	0.00385
1774.69	0.00305
1784.33	0.00359
1793.98	0.00214
1803.62	0.00129
1813.27	0.00125
1822.91	0.0013
1832.55	0.00202
1842.2	0.00215
1851.84	0.0012301
1861.49	0.0009063
1871.13	0.0009023
1880.78	0.000921
1890.42	0.00152
1900.07	0.00252
1909.71	0.00411
1919.36	0.00512
1929	0.00417
1938.65	0.00248
1948.29	0.0012364
1957.94	0.0008145
1967.58	0.0006888
1977.23	0.000646
1986.87	0.0006716
1996.52	0.00089
2006.16	0.0010771
2015.81	0.0011468
2025.45	0.0009473
2035.1	0.0008608
2044.74	0.0007855
2054.38	0.0009308
2064.03	0.0010926
2073.67	0.0009898
2083.32	0.0009061
2092.96	0.00134
2102.61	0.00142
2112.25	0.0011027
2121.9	0.0011551
2131.54	0.0010925
2141.19	0.0009075
2150.83	0.0008196
2160.48	0.0007858
2170.12	0.0007092
2179.77	0.0007182
2189.41	0.0007311
2199.06	0.0006866
2208.7	0.0006828
2218.35	0.000631
2227.99	0.0007495
2237.64	0.0008302
2247.28	0.0010886
2256.92	0.00147
2266.57	0.0016
2276.21	0.00136
2285.86	0.0009432
2295.5	0.0008898
2305.15	0.000974
2314.79	0.001138
2324.44	0.0011674
2334.08	0.0012188
2343.73	0.0010321
2353.37	0.0010719
2363.02	0.0010059
2372.66	0.0010894
2382.31	0.0010368
2391.95	0.0009902
2401.6	0.0009958
2411.24	0.0010976
2420.89	0.00132
2430.53	0.00138
2440.18	0.0014
2449.82	0.00128
2459.47	0.0010626
2469.11	0.0011035
2478.75	0.0011908
2488.4	0.00134
2498.04	0.00129
2507.69	0.0010651
2517.33	0.0010137
2526.98	0.0010376
2536.62	0.0013
2546.27	0.00156
2555.91	0.00137
2565.56	0.0010912
2575.2	0.0010525
2584.85	0.0013
2594.49	0.00146
2604.14	0.0012079
2613.78	0.0010562
2623.43	0.0009314
2633.07	0.0009264
2642.72	0.0008098
2652.36	0.0008163
2662.01	0.0009179
2671.65	0.0008496
2681.29	0.000892
2690.94	0.0009974
2700.58	0.0010032
2710.23	0.0010229
2719.87	0.00124
2729.52	0.00145
2739.16	0.00139
2748.81	0.0010346
2758.45	0.0008984
2768.1	0.0009462
2777.74	0.0010346
2787.39	0.0010992
2797.03	0.001149
2806.68	0.00134
2816.32	0.00162
2825.97	0.00199
2835.61	0.00255
2845.26	0.00349
2854.9	0.00488
2864.55	0.0066
2874.19	0.0063
2883.84	0.00568
2893.48	0.00539
2903.12	0.00576
2912.77	0.00782
2922.41	0.01543
2932.06	0.02738
2941.7	0.01917
2951.35	0.01066
2960.99	0.00884
2970.64	0.00653
2980.28	0.00453
2989.93	0.00422
2999.57	0.00515
3009.22	0.00656
3018.86	0.00918
3028.51	0.01276
3038.15	0.01347
3047.8	0.01762
3057.44	0.02687
3067.09	0.02628
3076.73	0.01877
3086.38	0.01154
3096.02	0.00592
3105.67	0.00334
3115.31	0.0021
3124.95	0.00145
3134.6	0.00131
3144.24	0.0009418
3153.89	0.0009898
3163.53	0.0010208
3173.18	0.000917
3182.82	0.0009211
3192.47	0.0009864
3202.11	0.0009312
3211.76	0.0009166
3221.4	0.000802
3231.05	0.0007713
3240.69	0.0007178
3250.34	0.0006467
3259.98	0.0005492
3269.63	0.0005571
3279.27	0.0005707
3288.92	0.0006895
3298.56	0.0004549
3308.21	0.00027999
3317.85	0.0005258
3327.49	0.0004898
3337.14	0.0007013
3346.78	0.0005592
3356.43	0.0004207
3366.07	0.000626
3375.72	0.0004677
3385.36	0.0003892
3395.01	0.0005262
3404.65	0.000456
3414.3	0.0005125
3423.94	0.0003701
3433.59	0.0004595
3443.23	0.0004268
3452.88	0.000389
3462.52	0.0004925
3472.17	0.0005118
3481.81	0.0003951
3491.46	0.0005021
3501.1	0.00026794
3510.75	0.0003663
3520.39	0.0004246
3530.04	0.0006222
3539.68	0.000299
3549.32	0.0005641
3558.97	0.0002854
3568.61	0.0005609
3578.26	0.0004699
3587.9	0.0007009
3597.55	0.0004103
3607.19	0.0005247
3616.84	0.0004576
3626.48	0.0004326
3636.13	0.0005264
3645.77	0.0005667
3655.42	0.000498
3665.06	0.0005238
3674.71	0.0004005
3684.35	0.0004624
3694	0.0006788
3703.64	0.0005559
3713.29	0.0005892
3722.93	0.0004782
3732.58	0.0005797
3742.22	0.00033226
3751.86	0.0004415
3761.51	0.0006144
3771.15	0.0005124
3780.8	0.0005753
3790.44	0.0006831
3800.09	0.000505
3809.73	0.000699
3819.38	0.0004345
3829.02	0.0003772
3838.67	0.0004891
3848.31	0.0005946
3857.96	0.0005807
3867.6	0.0005863
3877.25	0.0005383
3886.89	0.0006249
3896.54	0.0008807
3906.18	0.0005691
3915.83	0.0005694
3925.47	0.0007744
3935.12	0.0008572
3944.76	0.0009744
3954.41	0.0011501
3964.05	0.0013
3973.69	0.00131
3983.34	0.0012239
3992.98	0.0008177
