Infrared Spectrum: Acetamide, N-phenethyl-
Formula: C10 H13 N O
CAS: 877-95-2
State: SOLID (1 mg / 650 mg KBr DISC)
Class: COBLENTZ III
Instrument: PERKIN-ELMER 521 (GRATING)
Instrument parameters: FILTERS AT 3130, 2475, 2000, 1150, 700, 410. GRATING CHANGES: 2000, 630 CM^-^1
Sampling: TRANSMISSION
Resolution: 2
Origin: SOUTHERN RESEARCH INSTITUTE
1/CM	TRANSMITTANCE
243	0.2438
253	0.2783
263	0.3213
273	0.3789
283	0.4778
293	0.5133
303	0.5637
313	0.669
323	0.688
333	0.7039
343	0.7239
353	0.7629
363	0.8355
373	0.8798
383	0.9035
393	0.9154
403	0.9223
413	0.9283
423	0.933
433	0.9267
443	0.881
453	0.6356
463	0.8975
473	0.9424
483	0.9285
493	0.8193
503	0.6248
513	0.9365
523	0.9597
533	0.9541
543	0.943
553	0.9232
563	0.8833
573	0.6994
583	0.8368
593	0.6078
603	0.6961
613	0.9008
623	0.9205
633	0.9146
643	0.9155
653	0.9117
663	0.8832
673	0.834
683	0.7578
693	0.5103
703	0.221
713	0.5339
723	0.6072
733	0.6279
743	0.429
753	0.5127
763	0.8242
773	0.8709
783	0.9045
793	0.9254
803	0.939
813	0.9392
823	0.947
833	0.9648
843	0.9636
853	0.9695
863	0.9712
873	0.9653
883	0.9572
893	0.9427
903	0.9139
913	0.8711
923	0.9269
933	0.9156
943	0.8731
953	0.8945
963	0.9062
973	0.8905
983	0.8681
993	0.8282
1003	0.8643
1013	0.8792
1023	0.744
1033	0.6546
1043	0.7805
1053	0.8503
1063	0.8642
1073	0.8914
1083	0.8284
1093	0.798
1103	0.7715
1113	0.8856
1123	0.9001
1133	0.9023
1143	0.8912
1153	0.787
1163	0.8735
1173	0.8625
1183	0.8238
1193	0.5761
1203	0.7884
1213	0.8491
1223	0.8508
1233	0.8412
1243	0.8227
1253	0.7838
1263	0.7099
1273	0.6085
1283	0.5986
1293	0.5682
1303	0.4468
1313	0.5717
1323	0.6772
1333	0.7249
1343	0.722
1353	0.5625
1363	0.3871
1373	0.5438
1383	0.6067
1393	0.6374
1403	0.6094
1413	0.5688
1423	0.4924
1433	0.4739
1443	0.4747
1453	0.2985
1463	0.5789
1473	0.5486
1483	0.5815
1493	0.4249
1503	0.5461
1513	0.458
1523	0.3525
1533	0.247
1543	0.1949
1553	0.2029
1563	0.2412
1573	0.4034
1583	0.57
1593	0.6025
1603	0.5164
1613	0.4236
1623	0.2327
1633	0.0936
1643	0.0595
1653	0.138
1663	0.2623
1673	0.3176
1683	0.5904
1693	0.6841
1703	0.7263
1713	0.7698
1723	0.7932
1733	0.8142
1743	0.8272
1753	0.8364
1763	0.8479
1773	0.8619
1783	0.8751
1793	0.885
1803	0.8831
1813	0.8862
1823	0.8924
1833	0.9006
1843	0.9083
1853	0.9074
1863	0.9018
1873	0.8928
1883	0.8942
1893	0.8973
1903	0.9036
1913	0.9095
1923	0.9092
1933	0.9052
1943	0.8873
1953	0.8907
1963	0.9028
1973	0.9102
1983	0.9125
1993	0.9134
2003	0.9068
2013	0.9057
2023	0.9062
2033	0.9065
2043	0.9066
2053	0.9061
2063	0.9056
2073	0.9051
2083	0.9046
2093	0.9038
2103	0.9028
2113	0.9018
2123	0.9007
2133	0.8997
2143	0.8987
2153	0.8973
2163	0.8958
2173	0.8944
2183	0.893
2193	0.8913
2203	0.8896
2213	0.8879
2223	0.8862
2233	0.8844
2243	0.8826
2253	0.8808
2263	0.879
2273	0.8781
2283	0.8773
2293	0.8765
2303	0.8757
2313	0.8758
2323	0.8775
2333	0.8734
2343	0.87
2353	0.869
2363	0.8676
2373	0.8662
2383	0.8647
2393	0.8633
2403	0.862
2413	0.8606
2423	0.8593
2433	0.8578
2443	0.856
2453	0.8542
2463	0.8523
2473	0.8502
2483	0.8481
2493	0.8459
2503	0.8433
2513	0.8406
2523	0.8381
2533	0.8375
2543	0.8369
2553	0.8363
2563	0.8349
2573	0.8334
2583	0.8319
2593	0.8304
2603	0.83
2613	0.8296
2623	0.8292
2633	0.8305
2643	0.8318
2653	0.8315
2663	0.8309
2673	0.8299
2683	0.8274
2693	0.8245
2703	0.8189
2713	0.8078
2723	0.8033
2733	0.8029
2743	0.8034
2753	0.8042
2763	0.7989
2773	0.7862
2783	0.7733
2793	0.7601
2803	0.7453
2813	0.7301
2823	0.7172
2833	0.7118
2843	0.6854
2853	0.6395
2863	0.6025
2873	0.5932
2883	0.691
2893	0.6919
2903	0.6585
2913	0.6013
2923	0.5379
2933	0.5651
2943	0.5876
2953	0.6135
2963	0.6271
2973	0.6237
2983	0.6372
2993	0.6591
3003	0.6667
3013	0.624
3023	0.5535
3033	0.6008
3043	0.596
3053	0.5364
3063	0.4999
3073	0.5227
3083	0.4888
3093	0.5304
3103	0.5861
3113	0.641
3123	0.6644
3133	0.6697
3143	0.6658
3153	0.6542
3163	0.6384
3173	0.6166
3183	0.5894
3193	0.5583
3203	0.5448
3213	0.5395
3223	0.5253
3233	0.4856
3243	0.4354
3253	0.3748
3263	0.3206
3273	0.2047
3283	0.1349
3293	0.141
3303	0.2032
3313	0.2918
3323	0.2928
3333	0.2914
3343	0.3096
3353	0.3499
3363	0.4194
3373	0.4803
3383	0.5236
3393	0.5543
3403	0.5744
3413	0.5915
3423	0.6044
3433	0.6144
3443	0.6228
3453	0.6302
3463	0.636
3473	0.6411
3483	0.6449
3493	0.6487
3503	0.6521
3513	0.655
3523	0.6573
3533	0.6607
3543	0.6642
3553	0.668
3563	0.6718
3573	0.6755
3583	0.6791
3593	0.6827
3603	0.6855
3613	0.6877
3623	0.69
3633	0.6914
3643	0.6927
3653	0.6938
3663	0.694
3673	0.6944
3683	0.6948
3693	0.6961
3703	0.6983
3713	0.6979
3723	0.6971
3733	0.6964
3743	0.6957
3753	0.695
3763	0.6946
3773	0.6943
3783	0.694
3793	0.6934
3803	0.6929
3813	0.6923
3823	0.6917
3833	0.691
3843	0.6899
3853	0.6873
3863	0.6865
3873	0.6865
3883	0.6807
3893	0.6801
3903	0.6809
3913	0.6771
3923	0.6741
3933	0.6725
3943	0.6708
3953	0.6693
3963	0.6676
3973	0.6662
3983	0.6663
3993	0.6663
