Infrared Spectrum: 1,2,4-Triethylbenzene
Formula: C 12 H 18
CAS: 877-44-1
State: gas
Instrument: HP-GC/MS/IRD
Origin: NIST Mass Spectrometry Data Center
1/CM	ABSORBANCE
550	0.000351
562	0.000351
574	0.000189
586	0.0001125
598	0.000117
610	0.0003105
622	0.00045
634	0.000306
646	0.0001125
658	7.65e-05
670	3.6e-05
682	0.000144
694	0.000135
706	0.0002295
718	0.0002565
730	0.0001665
742	0.000207
754	0.0002745
766	0.0003465
778	0.000585
790	0.000954
802	0.001602
814	0.0036675
826	0.005058
838	0.0023265
850	0.000702
862	0.0006525
874	0.001926
886	0.003096
898	0.001152
910	0.000261
922	0.000153
934	0.000144
946	0.0003465
958	0.0007335
970	0.0008685
982	0.0005355
994	0.000351
1006	0.000342
1018	0.0004275
1030	0.00072
1042	0.0011655
1054	0.002259
1066	0.0021915
1078	0.0008775
1090	0.0004635
1102	0.000369
1114	0.0004005
1126	0.0004905
1138	0.0004095
1150	0.0004815
1162	0.0007155
1174	0.000468
1186	0.0002565
1198	0.0002655
1210	0.0003915
1222	0.0004545
1234	0.000567
1246	0.000621
1258	0.000603
1270	0.000594
1282	0.0007695
1294	0.0010305
1306	0.001701
1318	0.002736
1330	0.0022635
1342	0.001125
1354	0.0008685
1366	0.0012375
1378	0.0021915
1390	0.0019035
1402	0.001548
1414	0.002133
1426	0.002448
1438	0.00261
1450	0.0040725
1462	0.005391
1474	0.00468
1486	0.00468
1498	0.005913
1510	0.0034065
1522	0.001278
1534	0.0006975
1546	0.000567
1558	0.000594
1570	0.000756
1582	0.000684
1594	0.000792
1606	0.0015345
1618	0.001521
1630	0.000702
1642	0.000513
1654	0.0003645
1666	0.0002655
1678	0.0001845
1690	0.00018
1702	0.000126
1714	0.000126
1726	0.0001035
1738	0.000153
1750	0.000324
1762	0.000585
1774	0.0004275
1786	0.0001575
1798	9.45e-05
1810	8.55e-05
1822	9.45e-05
1834	0.0001395
1846	6.75e-05
1858	0.0001215
1870	0.0002565
1882	0.000522
1894	0.0003915
1906	0.000117
1918	9e-05
1930	6.3e-05
1942	5.4e-05
1954	3.6e-05
1966	1.35e-05
1978	9e-06
1990	2.7e-05
2002	5.4e-05
2014	6.75e-05
2026	9e-05
2038	7.2e-05
2050	6.3e-05
2062	3.6e-05
2074	3.6e-05
2086	2.25e-05
2098	2.25e-05
2110	2.25e-05
2122	1.8e-05
2134	1.35e-05
2146	1.8e-05
2158	1.35e-05
2170	3.15e-05
2182	4.05e-05
2194	0
2206	1.8e-05
2218	2.7e-05
2230	3.15e-05
2242	7.65e-05
2254	7.65e-05
2266	5.85e-05
2278	8.55e-05
2290	4.05e-05
2302	7.65e-05
2314	7.2e-05
2326	0.000108
2338	0.0001035
2350	9e-05
2362	7.2e-05
2374	6.3e-05
2386	4.5e-05
2398	5.4e-05
2410	7.2e-05
2422	0.000126
2434	0.0001035
2446	0.000108
2458	5.85e-05
2470	6.3e-05
2482	6.75e-05
2494	8.55e-05
2506	6.3e-05
2518	9.45e-05
2530	9e-05
2542	8.55e-05
2554	0.000117
2566	7.65e-05
2578	0.0001035
2590	9e-05
2602	0.000153
2614	0.000189
2626	0.00027
2638	0.0002925
2650	0.0002205
2662	0.000225
2674	0.000198
2686	0.0002295
2698	0.000279
2710	0.0003465
2722	0.000396
2734	0.00063
2746	0.000675
2758	0.000675
2770	0.000837
2782	0.0009855
2794	0.0011115
2806	0.001269
2818	0.001575
2830	0.00216
2842	0.0031095
2854	0.004878
2866	0.009063
2878	0.015507
2890	0.01701
2902	0.0136935
2914	0.0130725
2926	0.0165015
2938	0.024903
2950	0.0240885
2962	0.030195
2974	0.045
2986	0.0216
2998	0.0119565
3010	0.0107595
3022	0.0083295
3034	0.005823
3046	0.0053595
3058	0.004365
3070	0.0030015
3082	0.002061
3094	0.001602
3106	0.0014715
3118	0.00135
3130	0.00117
3142	0.00099
3154	0.0008595
3166	0.000729
3178	0.0005625
3190	0.0003645
3202	0.0002925
3214	0.0002475
3226	0.0002025
3238	0.000234
3250	0.000189
3262	0.00018
3274	0.0001665
3286	0.0001665
3298	0.0001215
3310	8.55e-05
3322	0.0001125
3334	7.2e-05
3346	6.75e-05
3358	9.45e-05
3370	7.2e-05
3382	6.3e-05
3394	7.65e-05
3406	5.85e-05
3418	7.65e-05
3430	5.85e-05
3442	8.1e-05
3454	6.75e-05
3466	8.1e-05
3478	7.2e-05
3490	6.75e-05
3502	6.3e-05
3514	8.55e-05
3526	6.75e-05
3538	4.5e-05
3550	6.3e-05
3562	8.55e-05
3574	4.5e-06
3586	4.05e-05
3598	0.000108
3610	4.5e-05
3622	6.3e-05
3634	3.6e-05
3646	6.3e-05
3658	0.0001035
3670	8.1e-05
3682	0.0001035
3694	0.0001215
3706	0.000126
3718	0.0001845
3730	0.0001665
3742	0.000153
3754	0.000135
3766	0.000126
3778	0.000126
3790	0.0001215
3802	0.0001485
3814	0.000126
3826	0.0001665
3838	0.000153
