Infrared Spectrum: QUINOLINE, 2,6-DIMETHYL
Formula: C11 H11 N
CAS: 877-43-0
State: SOLUTION (CCl4 FOR 2-10.1, CS2 FOR 10.1-16 MICRON)
Melting point: 57.5 C
Class: COBLENTZ III
Instrument: BAIRD (PRISM)
Instrument parameters: NaCl PRISM
Sampling: TRANSMISSION
Path length: 0.010 CM, 0.010 CM
Resolution: 2
Origin: WYANDOTTE CHEMICALS CORP.
MICROMETERS	TRANSMITTANCE
2.029	0.996
2.06802	0.995
2.10705	0.991
2.14607	0.982
2.1851	0.98
2.22412	0.984
2.26314	0.99
2.30217	0.997
2.34119	0.997
2.38021	0.993
2.41924	0.991
2.45826	0.997
2.49729	0.997
2.53631	0.997
2.57533	0.998
2.61436	1
2.65338	0.998
2.6924	0.998
2.73143	0.998
2.77045	0.997
2.80948	0.997
2.8485	0.997
2.88752	0.996
2.92655	0.991
2.96557	0.984
3.0046	0.984
3.04362	0.976
3.08264	0.976
3.12167	0.966
3.16069	0.965
3.19971	0.923
3.23874	0.577
3.27776	0.353
3.31679	0.371
3.35581	0.341
3.39483	0.274
3.43386	0.548
3.47288	0.532
3.5119	0.791
3.55093	0.931
3.58995	0.991
3.62898	0.988
3.668	0.998
3.70702	1.001
3.74605	1.001
3.78507	1.002
3.8241	0.998
3.86312	1.001
3.90214	1.003
3.94117	1.004
3.98019	1.003
4.01921	1.002
4.05824	1.001
4.09726	1
4.13629	1.001
4.17531	1.002
4.21433	1
4.25336	1.002
4.29238	1.009
4.3314	1.014
4.37043	1.017
4.40945	1.001
4.44848	1
4.4875	1.004
4.52652	1.007
4.56555	1.008
4.60457	1.011
4.64359	1.009
4.68262	1.014
4.72164	1.013
4.76067	1.013
4.79969	1.017
4.83871	1.015
4.87774	1.018
4.91676	1.014
4.95579	1.011
4.99481	1.018
5.03383	1.022
5.07286	1.022
5.11188	1.017
5.1509	1.013
5.18993	0.988
5.22895	0.952
5.26798	1.006
5.307	1.011
5.34602	1.011
5.38505	1.004
5.42407	1.001
5.46309	1.001
5.50212	1.004
5.54114	1.007
5.58017	1
5.61919	0.992
5.65821	0.995
5.69724	0.99
5.73626	0.996
5.77529	0.997
5.81431	0.916
5.85333	0.679
5.89236	0.796
5.93138	0.912
5.9704	0.971
6.00943	0.969
6.04845	0.955
6.08748	0.847
6.1265	0.58
6.16552	0.15
6.20455	0.031
6.24357	0.269
6.28259	0.35
6.32162	0.393
6.36064	0.234
6.39967	0.305
6.43869	0.379
6.47771	0.469
6.51674	0.51
6.55576	0.42
6.59479	0.249
6.63381	0.094
6.67283	0.103
6.71186	0.32
6.75088	0.452
6.7899	0.523
6.82893	0.424
6.86795	0.233
6.90698	0.19
6.946	0.279
6.98502	0.479
7.02405	0.549
7.06307	0.655
7.10209	0.683
7.14112	0.598
7.18014	0.531
7.21917	0.51
7.25819	0.24
7.29721	0.382
7.33624	0.653
7.37526	0.82
7.41429	0.812
7.45331	0.574
7.49233	0.628
7.53136	0.776
7.57038	0.58
7.6094	0.283
7.64843	0.403
7.68745	0.71
7.72648	0.931
7.7655	0.974
7.80452	0.982
7.84355	0.97
7.88257	0.851
7.92159	0.759
7.96062	0.757
7.99964	0.699
8.03867	0.758
8.07769	0.866
8.11671	0.867
8.15574	0.532
8.19476	0.269
8.23378	0.631
8.27281	0.801
8.31183	0.89
8.35086	0.952
8.38988	0.99
8.4289	0.998
8.46793	0.998
8.50695	0.997
8.54598	0.986
8.585	0.896
8.62402	0.911
8.66305	0.98
8.70207	0.99
8.74109	0.937
8.78012	0.93
8.81914	0.958
8.85817	0.965
8.89719	0.722
8.93621	0.255
8.97524	0.653
9.01426	0.89
9.05328	0.96
9.09231	0.986
9.13133	0.996
9.17036	0.998
9.20938	1
9.2484	0.997
9.28743	0.984
9.32645	0.984
9.36548	0.984
9.4045	0.976
9.44352	0.97
9.48255	0.939
9.52157	0.884
9.56059	0.82
9.59962	0.679
9.63864	0.591
9.67767	0.559
9.71669	0.591
9.75571	0.669
9.79474	0.714
9.83376	0.719
9.87278	0.642
9.91181	0.577
9.95083	0.582
9.98986	0.646
10.0289	0.739
10.0679	0.798
10.1069	0.833
10.146	0.847
10.185	0.855
10.224	0.851
10.263	0.82
10.302	0.731
10.3411	0.566
10.3801	0.554
10.4191	0.598
10.4581	0.598
10.4972	0.577
10.5362	0.754
10.5752	0.846
10.6142	0.907
10.6533	0.939
10.6923	0.96
10.7313	0.971
10.7703	0.979
10.8094	0.981
10.8484	0.982
10.8874	0.98
10.9264	0.96
10.9655	0.866
11.0045	0.817
11.0435	0.863
11.0825	0.893
11.1215	0.904
11.1606	0.896
11.1996	0.88
11.2386	0.846
11.2776	0.766
11.3167	0.602
11.3557	0.376
11.3947	0.2
11.4337	0.142
11.4728	0.247
11.5118	0.492
11.5508	0.617
11.5898	0.673
11.6289	0.727
11.6679	0.757
11.7069	0.775
11.7459	0.779
11.785	0.779
11.824	0.77
11.863	0.736
11.902	0.657
11.941	0.511
11.9801	0.312
12.0191	0.134
12.0581	0.08
12.0971	0.053
12.1362	0.046
12.1752	0.044
12.2142	0.055
12.2532	0.103
12.2923	0.18
12.3313	0.265
12.3703	0.266
12.4093	0.182
12.4484	0.174
12.4874	0.234
12.5264	0.29
12.5654	0.261
12.6045	0.18
12.6435	0.144
12.6825	0.211
12.7215	0.452
12.7605	0.634
12.7996	0.679
12.8386	0.677
12.8776	0.672
12.9166	0.687
12.9557	0.688
12.9947	0.688
13.0337	0.689
13.0727	0.7
13.1118	0.721
13.1508	0.753
13.1898	0.779
13.2288	0.787
13.2679	0.771
13.3069	0.704
13.3459	0.709
13.3849	0.818
13.424	0.919
13.463	0.96
13.502	0.987
13.541	0.995
13.58	0.997
13.6191	1
13.6581	1.001
13.6971	1.003
13.7361	1.008
13.7752	1.008
13.8142	1.008
13.8532	1.008
13.8922	1.008
13.9313	1.008
13.9703	1.007
14.0093	1.007
14.0483	1.006
14.0874	1.008
14.1264	1.007
14.1654	1.008
14.2044	1.012
14.2435	1.009
14.2825	1.007
14.3215	1.009
14.3605	1.007
14.3995	1.002
14.4386	0.997
14.4776	0.996
14.5166	0.991
14.5556	0.985
14.5947	0.984
14.6337	0.99
14.6727	0.993
14.7117	0.997
14.7508	0.998
14.7898	1.001
14.8288	1.002
14.8678	1.001
14.9069	0.996
14.9459	0.991
14.9849	0.988
15.0239	0.98
15.063	0.955
15.102	0.917
15.141	0.878
15.18	0.884
15.219	0.896
15.2581	0.923
15.2971	0.933
15.3361	0.93
15.3751	0.914
15.4142	0.86
15.4532	0.8
15.4922	0.782
15.5312	0.795
15.5703	0.818
15.6093	0.856
15.6483	0.884
15.6873	0.909
15.7264	0.934
15.7654	0.939
15.8044	0.942
15.8434	0.941
15.8825	0.942
15.9215	0.946
15.9605	0.946
15.9995	0.946
