Infrared Spectrum: 7-Norbornadienyl t-butyl ether
Formula: C 11 H 16 O
CAS: 877-06-5
State: gas
Origin: EPA-IR VAPOR PHASE LIBRARY
1/CM	ABSORBANCE
549.8	0.0006943
559.445	0.0003938
569.09	0.000214
578.734	0.0007244
588.379	0.0003931
598.024	0.0007921
607.669	0.0010819
617.313	0.000773
626.958	0.00109
636.603	0.002574
646.248	0.008964
655.893	0.013824
665.537	0.008074
675.182	0.002794
684.827	0.002374
694.472	0.003684
704.116	0.006024
713.761	0.012144
723.406	0.034634
733.051	0.031754
742.695	0.006264
752.34	0.003784
761.985	0.002964
771.63	0.001544
781.275	0.0012123
790.919	0.001884
800.564	0.003614
810.209	0.004424
819.854	0.002504
829.498	0.001574
839.143	0.001574
848.788	0.002074
858.433	0.002924
868.078	0.003734
877.722	0.004894
887.367	0.007184
897.012	0.008454
906.657	0.006294
916.301	0.003024
925.946	0.002184
935.591	0.002274
945.236	0.002804
954.88	0.003234
964.525	0.002824
974.17	0.001834
983.815	0.001694
993.46	0.001984
1003.1	0.002274
1012.75	0.003044
1022.39	0.004044
1032.04	0.003874
1041.68	0.003474
1051.33	0.004434
1060.97	0.005324
1070.62	0.006654
1080.26	0.012454
1089.91	0.025494
1099.55	0.052564
1109.2	0.079624
1118.84	0.062384
1128.49	0.022484
1138.13	0.013354
1147.78	0.014064
1157.42	0.011264
1167.07	0.013634
1176.71	0.027244
1186.36	0.043484
1196	0.038504
1205.64	0.028174
1215.29	0.026504
1224.93	0.024094
1234.58	0.017454
1244.22	0.012854
1253.87	0.009834
1263.51	0.006074
1273.16	0.003154
1282.8	0.002334
1292.45	0.002654
1302.09	0.004134
1311.74	0.006854
1321.38	0.007124
1331.03	0.004904
1340.67	0.005244
1350.32	0.009544
1359.96	0.017044
1369.61	0.019384
1379.25	0.014354
1388.9	0.015304
1398.54	0.012124
1408.18	0.005464
1417.83	0.003294
1427.47	0.002334
1437.12	0.002414
1446.76	0.002984
1456.41	0.003894
1466.05	0.004914
1475.7	0.005144
1485.34	0.003634
1494.99	0.002134
1504.63	0.001664
1514.28	0.001744
1523.92	0.002664
1533.57	0.004554
1543.21	0.006114
1552.86	0.004534
1562.5	0.002004
1572.15	0.0011646
1581.79	0.0011202
1591.44	0.001225
1601.08	0.001594
1610.73	0.002094
1620.37	0.002384
1630.01	0.001874
1639.66	0.001614
1649.3	0.001654
1658.95	0.001264
1668.59	0.0010613
1678.24	0.0011006
1687.88	0.0010496
1697.53	0.0009434
1707.17	0.0009849
1716.82	0.0009138
1726.46	0.0009464
1736.11	0.0008763
1745.75	0.0007957
1755.4	0.0009005
1765.04	0.0010279
1774.69	0.0010528
1784.33	0.0010036
1793.98	0.0009458
1803.62	0.0008823
1813.27	0.0008403
1822.91	0.0006883
1832.55	0.0007126
1842.2	0.0007599
1851.84	0.0006591
1861.49	0.0005942
1871.13	0.0006742
1880.78	0.0006095
1890.42	0.0005911
1900.07	0.000483
1909.71	0.0005156
1919.36	0.0005608
1929	0.0005713
1938.65	0.0005853
1948.29	0.0005712
1957.94	0.0005374
1967.58	0.0005984
1977.23	0.0007093
1986.87	0.0006585
1996.52	0.0006942
2006.16	0.0006572
2015.81	0.000508
2025.45	0.0005001
2035.1	0.0005373
2044.74	0.0004573
2054.38	0.0005067
2064.03	0.0005069
2073.67	0.0005627
2083.32	0.0004907
2092.96	0.0005326
2102.61	0.0006504
2112.25	0.0007667
2121.9	0.0007557
2131.54	0.0007135
2141.19	0.0006757
2150.83	0.0007179
2160.48	0.0008633
2170.12	0.0007639
2179.77	0.0008198
2189.41	0.0008514
2199.06	0.0009432
2208.7	0.0009967
2218.35	0.0008623
2227.99	0.0007122
2237.64	0.0006582
2247.28	0.0004372
2256.92	0.0003896
2266.57	0.0005045
2276.21	0.0005762
2285.86	0.0005108
2295.5	0.0004875
2305.15	0.0005379
2314.79	0.0004881
2324.44	0.0004452
2334.08	0.000569
2343.73	0.0006629
2353.37	0.0006889
2363.02	0.0005451
2372.66	0.0005868
2382.31	0.0004442
2391.95	0.0004112
2401.6	0.0003945
2411.24	0.0004024
2420.89	0.0004155
2430.53	0.0003686
2440.18	0.0004153
2449.82	0.0004369
2459.47	0.00033331
2469.11	0.0003675
2478.75	0.0003487
2488.4	0.00032012
2498.04	0.0003567
2507.69	0.0003915
2517.33	0.0002007
2526.98	0.00029229
2536.62	0.0003363
2546.27	0.00028622
2555.91	0.00028921
2565.56	0.0003805
2575.2	0.00033116
2584.85	0.0004071
2594.49	0.0003344
2604.14	0.0004223
2613.78	0.00032035
2623.43	0.0005011
2633.07	0.0003683
2642.72	0.0003994
2652.36	0.0003801
2662.01	0.0004583
2671.65	0.000485
2681.29	0.000415
2690.94	0.0006222
2700.58	0.0005258
2710.23	0.0007046
2719.87	0.0006849
2729.52	0.0007747
2739.16	0.0008065
2748.81	0.00062
2758.45	0.0007086
2768.1	0.0007323
2777.74	0.0008003
2787.39	0.0007128
2797.03	0.0009304
2806.68	0.0010496
2816.32	0.0011936
2825.97	0.001504
2835.61	0.002014
2845.26	0.002324
2854.9	0.002874
2864.55	0.004194
2874.19	0.005834
2883.84	0.006794
2893.48	0.006974
2903.12	0.007734
2912.77	0.009414
2922.41	0.011554
2932.06	0.015254
2941.7	0.019024
2951.35	0.019064
2960.99	0.021724
2970.64	0.040254
2980.28	0.060874
2989.93	0.050514
2999.57	0.031864
3009.22	0.015454
3018.86	0.007414
3028.51	0.006084
3038.15	0.005664
3047.8	0.005164
3057.44	0.005924
3067.09	0.008334
3076.73	0.010074
3086.38	0.008234
3096.02	0.005234
3105.67	0.005224
3115.31	0.004034
3124.95	0.003034
3134.6	0.002564
3144.24	0.001674
3153.89	0.0012229
3163.53	0.0010413
3173.18	0.0009464
3182.82	0.0007903
3192.47	0.0006707
3202.11	0.0005136
3211.76	0.0007069
3221.4	0.0007078
3231.05	0.0004854
3240.69	0.000649
3250.34	0.0005222
3259.98	0.000374
3269.63	0.0003608
3279.27	0.0002029
3288.92	0.0003335
3298.56	0.0002223
3308.21	0.00025103
3317.85	0.00030003
3327.49	0.00026991
3337.14	0.0003387
3346.78	0.00028551
3356.43	0.0004432
3366.07	0.0003416
3375.72	0.000234008
3385.36	0.00031879
3395.01	0.00028451
3404.65	0.00030785
3414.3	0.0001444
3423.94	6.3e-05
3433.59	0.0003569
3443.23	0.000240114
3452.88	0.0003471
3462.52	0.00030574
3472.17	0.0003615
3481.81	0.00030591
3491.46	0.00024422
3501.1	8.1e-05
3510.75	0.0001734
3520.39	0.00024918
3530.04	0.00029289
3539.68	0.00032935
3549.32	0.0003848
3558.97	0.0001698
3568.61	0.00030957
3578.26	0.00029664
3587.9	0.0001441
3597.55	0.0001914
3607.19	0.0002034
3616.84	0.00023213
3626.48	0.00029838
3636.13	9.7e-05
3645.77	0.0002183
3655.42	0.00027478
3665.06	0.00024507
3674.71	0.0001758
3684.35	0.00025881
3694	0.00026865
3703.64	0.000119
3713.29	0.0001839
3722.93	0.00032606
3732.58	0.00028383
3742.22	0.0001837
3751.86	0.00025238
3761.51	0.0003918
3771.15	0.0003802
3780.8	0.0003662
3790.44	0.0006572
3800.09	0.0005866
3809.73	0.0004825
3819.38	0.00025903
3829.02	0.00032935
3838.67	0.0003845
3848.31	0.0003983
3857.96	0.0003093
3867.6	0.000505
3877.25	0.000334
3886.89	0.0006231
3896.54	0.0005179
3906.18	0.00055
3915.83	0.0007197
3925.47	0.0005733
3935.12	0.0005546
3944.76	0.0004655
3954.41	0.0004241
3964.05	0.00028036
3973.69	0.00032158
3983.34	0.0003238
3992.98	0.0005627
