Infrared Spectrum: 3-METHOXYPHENYL SALICYLATE
Formula: C14 H12 O4
CAS: 87720-40-9
State: SOLUTION (10% IN CCl4 FOR 5000-1350 CM^-^1, 10% IN CS2 FOR 1350-625 CM^-^1)
Class: COBLENTZ
Instrument: Not specified, most likely a prism, grating, or hybrid spectrometer.
Sampling: TRANSMISSION
Path length: 0.01 CM, 0.01 CM
Resolution: 4
Origin: DOW CHEMICAL COMPANY
MICROMETERS	TRANSMITTANCE
2.034	0.882
2.07316	0.882
2.11231	0.879
2.15147	0.882
2.19062	0.88
2.22978	0.872
2.26893	0.88
2.30809	0.882
2.34725	0.882
2.3864	0.879
2.42556	0.877
2.46471	0.884
2.50387	0.882
2.54302	0.887
2.58218	0.887
2.62134	0.892
2.66049	0.889
2.69965	0.88
2.7388	0.859
2.77796	0.831
2.81711	0.809
2.85627	0.779
2.89543	0.778
2.93458	0.738
2.97374	0.657
3.01289	0.526
3.05205	0.401
3.0912	0.371
3.13036	0.504
3.16952	0.605
3.20867	0.631
3.24783	0.597
3.28698	0.611
3.32614	0.61
3.36529	0.548
3.40445	0.595
3.44361	0.704
3.48276	0.683
3.52192	0.778
3.56107	0.8
3.60023	0.805
3.63938	0.823
3.67854	0.83
3.7177	0.833
3.75685	0.835
3.79601	0.831
3.83516	0.841
3.87432	0.843
3.91347	0.843
3.95263	0.851
3.99179	0.859
4.03094	0.854
4.0701	0.845
4.10925	0.845
4.14841	0.843
4.18756	0.836
4.22672	0.831
4.26588	0.833
4.30503	0.843
4.34419	0.848
4.38334	0.862
4.4225	0.872
4.46165	0.869
4.50081	0.869
4.53997	0.861
4.57912	0.869
4.61828	0.866
4.65743	0.869
4.69659	0.867
4.73574	0.874
4.7749	0.869
4.81406	0.867
4.85321	0.872
4.89237	0.869
4.93152	0.872
4.97068	0.869
5.00983	0.869
5.04899	0.862
5.08815	0.841
5.1273	0.853
5.16646	0.83
5.20561	0.854
5.24477	0.851
5.28392	0.867
5.32308	0.851
5.36224	0.864
5.40139	0.851
5.44055	0.846
5.4797	0.82
5.51886	0.838
5.55801	0.838
5.59717	0.822
5.63633	0.796
5.67548	0.75
5.71464	0.712
5.75379	0.681
5.79295	0.613
5.8321	0.334
5.87126	0.104
5.91042	0.073
5.94957	0.265
5.98873	0.513
6.02788	0.566
6.06704	0.613
6.10619	0.497
6.14535	0.213
6.18451	0.091
6.22366	0.169
6.26282	0.104
6.30197	0.182
6.34113	0.384
6.38028	0.398
6.41944	0.375
6.4586	0.398
6.49775	0.476
6.53691	0.487
6.57606	0.404
6.61522	0.308
6.65437	0.189
6.69353	0.048
6.73269	0.084
6.77184	0.119
6.811	0.194
6.85015	0.36
6.88931	0.402
6.92846	0.409
6.96762	0.481
7.00678	0.443
7.04593	0.371
7.08509	0.319
7.12424	0.292
7.1634	0.358
7.20255	0.442
7.24171	0.504
7.28087	0.548
7.32002	0.549
7.35918	0.504
7.39833	0.389
7.43749	0.185
7.47664	0.097
7.5158	0.13
7.55496	0.104
7.59411	0.075
7.63327	0.029
7.67242	0.017
7.71158	0.071
7.75073	0.107
7.78989	0.163
7.82905	0.218
7.8682	0.101
7.90736	0.078
7.94651	0.06
7.98567	0.04
8.02482	0.158
8.06398	0.207
8.10314	0.182
8.14229	0.205
8.18145	0.197
8.2206	0.083
8.25976	0.021
8.29891	0.027
8.33807	0.034
8.37723	0.024
8.41638	0.053
8.45554	0.143
8.49469	0.226
8.53385	0.194
8.573	0.088
8.61216	0.027
8.65132	0.04
8.69047	0.058
8.72963	0.019
8.76878	0.027
8.80794	0.055
8.84709	0.071
8.88625	0.166
8.92541	0.272
8.96456	0.239
9.00372	0.122
9.04287	0.04
9.08203	0.114
9.12118	0.292
9.16034	0.437
9.1995	0.461
9.23865	0.394
9.27781	0.318
9.31696	0.298
9.35612	0.14
9.39527	0.159
9.43443	0.383
9.47359	0.427
9.51274	0.35
9.5519	0.323
9.59105	0.345
9.63021	0.386
9.66936	0.435
9.70852	0.574
9.74768	0.641
9.78683	0.699
9.82599	0.717
9.86514	0.719
9.9043	0.721
9.94345	0.709
9.98261	0.626
10.0218	0.626
10.0609	0.789
10.1001	0.8
10.1392	0.809
10.1784	0.812
10.2175	0.81
10.2567	0.812
10.2959	0.815
10.335	0.81
10.3742	0.8
10.4133	0.787
10.4525	0.758
10.4916	0.717
10.5308	0.722
10.5699	0.742
10.6091	0.725
10.6483	0.672
10.6874	0.619
10.7266	0.641
10.7657	0.717
10.8049	0.737
10.844	0.742
10.8832	0.719
10.9223	0.701
10.9615	0.716
11.0007	0.747
11.0398	0.756
11.079	0.737
11.1181	0.68
11.1573	0.628
11.1964	0.585
11.2356	0.587
11.2747	0.582
11.3139	0.582
11.3531	0.597
11.3922	0.603
11.4314	0.595
11.4705	0.559
11.5097	0.495
11.5488	0.401
11.588	0.357
11.6271	0.394
11.6663	0.458
11.7055	0.492
11.7446	0.538
11.7838	0.579
11.8229	0.606
11.8621	0.618
11.9012	0.631
11.9404	0.652
11.9796	0.663
12.0187	0.665
12.0579	0.647
12.097	0.623
12.1362	0.595
12.1753	0.584
12.2145	0.59
12.2536	0.606
12.2928	0.637
12.332	0.652
12.3711	0.66
12.4103	0.657
12.4494	0.611
12.4886	0.528
12.5277	0.477
12.5669	0.484
12.606	0.508
12.6452	0.559
12.6844	0.61
12.7235	0.639
12.7627	0.649
12.8018	0.637
12.841	0.6
12.8801	0.531
12.9193	0.42
12.9584	0.327
12.9976	0.257
13.0368	0.2
13.0759	0.153
13.1151	0.12
13.1542	0.066
13.1934	0.014
13.2325	0.004
13.2717	0.079
13.3108	0.202
13.35	0.296
13.3892	0.321
13.4283	0.321
13.4675	0.394
13.5066	0.461
13.5458	0.504
13.5849	0.522
13.6241	0.528
13.6632	0.517
13.7024	0.5
13.7416	0.479
13.7807	0.458
13.8199	0.429
13.859	0.399
13.8982	0.368
13.9373	0.332
13.9765	0.296
14.0156	0.261
14.0548	0.228
14.094	0.199
14.1331	0.161
14.1723	0.127
14.2114	0.091
14.2506	0.063
14.2897	0.052
14.3289	0.058
14.368	0.088
14.4072	0.119
14.4464	0.14
14.4855	0.146
14.5247	0.14
14.5638	0.135
14.603	0.138
14.6421	0.161
14.6813	0.199
14.7205	0.23
14.7596	0.247
14.7988	0.252
14.8379	0.243
14.8771	0.238
14.9162	0.244
14.9554	0.269
14.9945	0.298
15.0337	0.318
15.0729	0.329
15.112	0.347
15.1512	0.357
15.1903	0.362
15.2295	0.365
15.2686	0.368
15.3078	0.37
15.3469	0.368
15.3861	0.368
15.4253	0.37
15.4644	0.367
15.5036	0.36
15.5427	0.358
15.5819	0.355
15.621	0.35
15.6602	0.347
15.6993	0.342
15.7385	0.334
15.7777	0.327
15.8168	0.321
15.856	0.319
15.8951	0.327
