Infrared Spectrum: 4-Methyl-1-heptyn-3-ol
Formula: C 8 H 14 O
CAS: 87777-46-6
State: gas
Origin: EPA-IR VAPOR PHASE LIBRARY
1/CM	ABSORBANCE
549.8	0.00569
559.445	0.00332
569.09	0.00316
578.734	0.00312
588.379	0.0028
598.024	0.00326
607.669	0.00362
617.313	0.00971
626.958	0.0212
636.603	0.02509
646.248	0.01965
655.893	0.02412
665.537	0.01509
675.182	0.00611
684.827	0.00342
694.472	0.0024185
704.116	0.00275
713.761	0.0023584
723.406	0.00264
733.051	0.003
742.695	0.00365
752.34	0.0031
761.985	0.00248
771.63	0.0031
781.275	0.001624
790.919	0.00283
800.564	0.00313
810.209	0.00296
819.854	0.00263
829.498	0.00368
839.143	0.00319
848.788	0.0023109
858.433	0.00351
868.078	0.00361
877.722	0.00355
887.367	0.00346
897.012	0.00369
906.657	0.00453
916.301	0.00401
925.946	0.00491
935.591	0.00515
945.236	0.00767
954.88	0.00968
964.525	0.01323
974.17	0.0134
983.815	0.01183
993.46	0.01086
1003.1	0.01406
1012.75	0.01944
1022.39	0.02645
1032.04	0.02624
1041.68	0.0183
1051.33	0.01264
1060.97	0.01022
1070.62	0.00763
1080.26	0.00798
1089.91	0.00689
1099.55	0.00407
1109.2	0.00522
1118.84	0.00423
1128.49	0.00475
1138.13	0.00495
1147.78	0.00372
1157.42	0.0043
1167.07	0.0018526
1176.71	0.0016761
1186.36	0.0020642
1196	0.000624
1205.64	0.00333
1215.29	0.00548
1224.93	0.00302
1234.58	0.00735
1244.22	0.00915
1253.87	0.01226
1263.51	0.01027
1273.16	0.00759
1282.8	0.00646
1292.45	0.00652
1302.09	0.00712
1311.74	0.008
1321.38	0.00905
1331.03	0.00871
1340.67	0.00911
1350.32	0.01019
1359.96	0.01067
1369.61	0.01116
1379.25	0.01142
1388.9	0.0103
1398.54	0.00736
1408.18	0.00508
1417.83	0.00431
1427.47	0.00437
1437.12	0.00502
1446.76	0.00638
1456.41	0.00864
1466.05	0.00915
1475.7	0.00736
1485.34	0.00489
1494.99	0.00367
1504.63	0.0028
1514.28	0.0028
1523.92	0.00274
1533.57	0.0023699
1543.21	0.002024
1552.86	0.0018014
1562.5	0.001897
1572.15	0.0018945
1581.79	0.002277
1591.44	0.0016294
1601.08	0.0019671
1610.73	0.0021195
1620.37	0.0023541
1630.01	0.0019171
1639.66	0.0017666
1649.3	0.00153368
1658.95	0.0015924
1668.59	0.001346
1678.24	0.00153538
1687.88	0.0014563
1697.53	0.001309
1707.17	0.0014343
1716.82	0.00145423
1726.46	0.0014313
1736.11	0.00145013
1745.75	0.001339
1755.4	0.0013657
1765.04	0.0017327
1774.69	0.00152089
1784.33	0.00151375
1793.98	0.001253
1803.62	0.0014976
1813.27	0.00151703
1822.91	0.0013
1832.55	0.0015917
1842.2	0.0013624
1851.84	0.0013899
1861.49	0.0016881
1871.13	0.0018654
1880.78	0.0017171
1890.42	0.0018166
1900.07	0.0014876
1909.71	0.0016255
1919.36	0.0018543
1929	0.0017215
1938.65	0.0019994
1948.29	0.001844
1957.94	0.0017798
1967.58	0.0016351
1977.23	0.0019033
1986.87	0.0017327
1996.52	0.0019143
2006.16	0.0018373
2015.81	0.0018862
2025.45	0.0018647
2035.1	0.0019565
2044.74	0.0018756
2054.38	0.0020413
2064.03	0.002003
2073.67	0.001728
2083.32	0.0016882
2092.96	0.0020824
2102.61	0.0020574
2112.25	0.0020167
2121.9	0.0023373
2131.54	0.0019898
2141.19	0.0018451
2150.83	0.0021282
2160.48	0.001845
2170.12	0.0016461
2179.77	0.0020408
2189.41	0.0016394
2199.06	0.0019611
2208.7	0.0022057
2218.35	0.001606
2227.99	0.0017579
2237.64	0.0018631
2247.28	0.0020137
2256.92	0.0019359
2266.57	0.002041
2276.21	0.0020013
2285.86	0.0022716
2295.5	0.001762
2305.15	0.0017091
2314.79	0.0020373
2324.44	0.0020128
2334.08	0.00146281
2343.73	0.0019994
2353.37	0.0020918
2363.02	0.0019423
2372.66	0.0021589
2382.31	0.0023921
2391.95	0.0019846
2401.6	0.0022046
2411.24	0.0018951
2420.89	0.002004
2430.53	0.0020183
2440.18	0.0019231
2449.82	0.0019503
2459.47	0.0021434
2469.11	0.0023467
2478.75	0.0023141
2488.4	0.0024407
2498.04	0.0021254
2507.69	0.0021732
2517.33	0.0017285
2526.98	0.0021488
2536.62	0.002057
2546.27	0.0021777
2555.91	0.0016684
2565.56	0.0023307
2575.2	0.00263
2584.85	0.0018403
2594.49	0.0021723
2604.14	0.0025
2613.78	0.0020671
2623.43	0.0023749
2633.07	0.00245
2642.72	0.00251
2652.36	0.0022341
2662.01	0.00263
2671.65	0.00265
2681.29	0.00276
2690.94	0.00265
2700.58	0.00288
2710.23	0.0024145
2719.87	0.00258
2729.52	0.00248
2739.16	0.00309
2748.81	0.00245
2758.45	0.00293
2768.1	0.00339
2777.74	0.00337
2787.39	0.0032
2797.03	0.00356
2806.68	0.00335
2816.32	0.00439
2825.97	0.00487
2835.61	0.00572
2845.26	0.00683
2854.9	0.01017
2864.55	0.01461
2874.19	0.0212
2883.84	0.02505
2893.48	0.02567
2903.12	0.02558
2912.77	0.02766
2922.41	0.03159
2932.06	0.03659
2941.7	0.03694
2951.35	0.03437
2960.99	0.04168
2970.64	0.04758
2980.28	0.03486
2989.93	0.01737
2999.57	0.00872
3009.22	0.00581
3018.86	0.0048
3028.51	0.00414
3038.15	0.00445
3047.8	0.00384
3057.44	0.00337
3067.09	0.00329
3076.73	0.00275
3086.38	0.00268
3096.02	0.00311
3105.67	0.00333
3115.31	0.00259
3124.95	0.00293
3134.6	0.0023961
3144.24	0.0023798
3153.89	0.00249
3163.53	0.00282
3173.18	0.0020018
3182.82	0.0023945
3192.47	0.00257
3202.11	0.0024077
3211.76	0.00252
3221.4	0.0018146
3231.05	0.0020642
3240.69	0.00292
3250.34	0.0018377
3259.98	0.002288
3269.63	0.0019728
3279.27	0.00397
3288.92	0.00438
3298.56	0.00834
3308.21	0.01064
3317.85	0.01891
3327.49	0.01979
3337.14	0.00949
3346.78	0.00394
3356.43	0.0041
3366.07	0.0023313
3375.72	0.0023713
3385.36	0.00258
3395.01	0.0020165
3404.65	0.0021115
3414.3	0.0023464
3423.94	0.0023234
3433.59	0.00265
3443.23	0.0021323
3452.88	0.0021791
3462.52	0.0018362
3472.17	0.0021164
3481.81	0.0016487
3491.46	0.0015565
3501.1	0.001211
3510.75	0.00251
3520.39	0.0022406
3530.04	0.00152893
3539.68	0.0020056
3549.32	0.00147683
3558.97	0.0025
3568.61	0.0019642
3578.26	0.0014327
3587.9	0.0019473
3597.55	0.0017268
3607.19	0.00183
3616.84	0.0022615
3626.48	0.00303
3636.13	0.00568
3645.77	0.01033
3655.42	0.00985
3665.06	0.00589
3674.71	0.00322
3684.35	0.0019553
3694	0.000827
3703.64	0.0019891
3713.29	0.0022715
3722.93	0.00272
3732.58	0.0020597
3742.22	0.0016432
3751.86	0.0020077
3761.51	0.00271
3771.15	0.0023507
3780.8	0.0023844
3790.44	0.001794
3800.09	0.0021637
3809.73	0.00150314
3819.38	0.0020343
3829.02	0
3838.67	0.0020373
3848.31	0.00259
3857.96	0.0016217
3867.6	0.00153136
3877.25	0.00283
3886.89	0.0021435
3896.54	0.0019024
3906.18	0.0015651
3915.83	0.0022195
3925.47	0.00269
3935.12	0.0020515
3944.76	0.0027
3954.41	0.0021217
3964.05	0.0019465
3973.69	0.0016166
3983.34	0.0020173
3992.98	0.0021885
