Infrared Spectrum: p-Acetoxybenzaldehyde
Formula: C 9 H 8 O 3
CAS: 878-00-2
State: gas
Instrument: HP-GC/MS/IRD
Origin: NIST Mass Spectrometry Data Center
1/CM	ABSORBANCE
550	0.000216
562	0.00012
574	0.0006
586	0.000924
598	0.000852
610	0.00066
622	0.000888
634	0.001572
646	0.001596
658	0.00276
670	0.005484
682	0.003576
694	0.001596
706	0.00174
718	0.001452
730	0.000348
742	0.000336
754	0.000696
766	0.002172
778	0.002436
790	0.001308
802	0.002052
814	0.004572
826	0.005616
838	0.006936
850	0.010068
862	0.007236
874	0.004392
886	0.005448
898	0.009312
910	0.009996
922	0.003432
934	0.001488
946	0.001152
958	0.00084
970	0.00108
982	0.002148
994	0.004404
1006	0.00966
1018	0.007992
1030	0.002688
1042	0.002076
1054	0.002424
1066	0.003456
1078	0.0045
1090	0.004164
1102	0.003684
1114	0.003252
1126	0.003804
1138	0.007092
1150	0.02874
1162	0.041724
1174	0.032652
1186	0.085032
1198	0.118752
1210	0.068736
1222	0.032868
1234	0.011196
1246	0.006036
1258	0.004584
1270	0.0042
1282	0.003936
1294	0.004932
1306	0.003984
1318	0.00252
1330	0.001992
1342	0.001932
1354	0.003612
1366	0.01014
1378	0.014436
1390	0.005832
1402	0.002844
1414	0.002496
1426	0.002796
1438	0.001968
1450	0.001464
1462	0.001236
1474	0.001392
1486	0.002856
1498	0.00792
1510	0.006984
1522	0.002856
1534	0.001788
1546	0.001572
1558	0.001836
1570	0.00324
1582	0.009216
1594	0.019476
1606	0.01626
1618	0.004908
1630	0.00216
1642	0.001884
1654	0.002136
1666	0.002832
1678	0.003684
1690	0.00468
1702	0.009372
1714	0.031548
1726	0.048672
1738	0.010704
1750	0.006744
1762	0.01014
1774	0.017076
1786	0.023352
1798	0.022128
1810	0.013392
1822	0.005856
1834	0.00276
1846	0.001632
1858	0.001092
1870	0.00078
1882	0.00072
1894	0.00078
1906	0.000852
1918	0.000792
1930	0.00066
1942	0.000552
1954	0.00072
1966	0.000852
1978	0.000696
1990	0.000504
2002	0.000528
2014	0.000528
2026	0.00048
2038	0.000456
2050	0.000456
2062	0.00042
2074	0.000408
2086	0.000384
2098	0.000408
2110	0.000288
2122	0.000192
2134	0.000132
2146	7.2e-05
2158	0.000108
2170	0.00012
2182	6e-05
2194	3.6e-05
2206	4.8e-05
2218	4.8e-05
2230	3.6e-05
2242	7.2e-05
2254	9.6e-05
2266	0.000156
2278	0.000204
2290	0.000108
2302	8.4e-05
2314	0.000132
2326	0.00012
2338	8.4e-05
2350	0.000192
2362	0.000288
2374	0.000336
2386	0.000372
2398	0.000396
2410	0.000372
2422	0.000288
2434	0.000228
2446	0.00018
2458	0.000144
2470	0.000132
2482	0.00012
2494	0.000144
2506	0.000192
2518	0.00018
2530	0.000144
2542	0.000144
2554	0.00018
2566	0.000252
2578	0.000336
2590	0.000384
2602	0.000312
2614	0.000324
2626	0.000264
2638	0.000192
2650	0.000276
2662	0.000468
2674	0.000816
2686	0.001332
2698	0.002184
2710	0.004068
2722	0.006264
2734	0.00576
2746	0.003108
2758	0.002076
2770	0.002448
2782	0.003396
2794	0.004236
2806	0.004968
2818	0.005784
2830	0.004068
2842	0.002004
2854	0.000996
2866	0.000516
2878	0.000408
2890	0.000348
2902	0.000336
2914	0.000336
2926	0.000396
2938	0.000444
2950	0.0006
2962	0.000492
2974	0.000444
2986	0.000444
2998	0.000612
3010	0.00078
3022	0.001092
3034	0.001524
3046	0.001524
3058	0.001068
3070	0.001212
3082	0.001248
3094	0.00096
3106	0.0009
3118	0.000624
3130	0.000324
3142	0.000192
3154	0.00024
3166	0.000204
3178	0.000192
3190	0.000192
3202	0.000144
3214	0.00012
3226	7.2e-05
3238	4.8e-05
3250	3.6e-05
3262	0.000144
3274	7.2e-05
3286	7.2e-05
3298	8.4e-05
3310	0.000132
3322	4.8e-05
3334	0.000108
3346	0.000204
3358	0.00018
3370	0.000228
3382	0.00024
3394	0.000264
3406	0.000468
3418	0.000756
3430	0.000816
3442	0.000492
3454	0.000312
3466	0.000216
3478	0.000168
3490	0.000156
3502	0.000228
3514	0.000312
3526	0.000288
3538	0.000396
3550	0.000528
3562	0.000468
3574	0.000444
3586	0.000348
3598	0.0003
3610	0.000228
3622	0.000288
3634	0.000384
3646	0.000576
3658	0.00048
3670	0.000276
3682	0.000276
3694	0.00018
3706	0.000276
3718	0.000204
3730	0.000204
3742	0.000216
3754	0.000168
3766	0.00012
3778	0.000216
3790	0.000192
3802	0.000132
3814	0.000216
3826	0.00018
3838	0.000156
