Infrared Spectrum: Succinic acid, Diisopropylphosphono-, Dimethyl Ester
Formula: C12 H23 O7 P
CAS: 87892-88-4
State: LIQUID (NEAT)
Class: COBLENTZ III
Instrument: PERKIN-ELMER 21 (GRATING)
Instrument parameters: FILTER CHANGE ABOUT 1080 CM^-^1
Sampling: TRANSMISSION
Path length: CAPILLARY
Resolution: 2
Origin: SOUTHERN RESEARCH INSTITUTE
1/CM	TRANSMITTANCE
604	0.6634
613	0.6653
622	0.6723
631	0.6807
640	0.6894
649	0.6982
658	0.7207
667	0.7655
676	0.7953
685	0.7942
694	0.7868
703	0.7784
712	0.7544
721	0.7487
730	0.7472
739	0.7234
748	0.7014
757	0.6843
766	0.646
775	0.6351
784	0.6993
793	0.746
802	0.7341
811	0.7156
820	0.7033
829	0.6987
838	0.6184
847	0.5348
856	0.5491
865	0.4925
874	0.6206
883	0.6024
892	0.4937
901	0.5798
910	0.6229
919	0.6291
928	0.6052
937	0.5611
946	0.5452
955	0.4751
964	0.3509
973	0.2528
982	0.0706
991	0.0668
1000	0.0728
1009	0.079
1018	0.0928
1027	0.1863
1036	0.3019
1045	0.4314
1054	0.5399
1063	0.559
1072	0.5782
1081	0.4655
1090	0.5141
1099	0.4389
1108	0.2906
1117	0.4416
1126	0.4936
1135	0.4704
1144	0.3424
1153	0.2813
1162	0.153
1171	0.1846
1180	0.2142
1189	0.2312
1198	0.2881
1207	0.269
1216	0.2017
1225	0.1766
1234	0.1722
1243	0.144
1252	0.1052
1261	0.107
1270	0.1302
1279	0.2201
1288	0.3186
1297	0.3844
1306	0.3953
1315	0.3745
1324	0.3137
1333	0.317
1342	0.3673
1351	0.4123
1360	0.4009
1369	0.3774
1378	0.3192
1387	0.3481
1396	0.3662
1405	0.5349
1414	0.501
1423	0.4992
1432	0.4896
1441	0.2749
1450	0.3852
1459	0.4302
1468	0.4485
1477	0.5394
1486	0.5928
1495	0.6251
1504	0.6411
1513	0.6498
1522	0.6544
1531	0.6566
1540	0.6572
1549	0.6565
1558	0.6536
1567	0.6543
1576	0.6546
1585	0.6509
1594	0.646
1603	0.6396
1612	0.6291
1621	0.6097
1630	0.6019
1639	0.5993
1648	0.6019
1657	0.6061
1666	0.6057
1675	0.5974
1684	0.5809
1693	0.5538
1702	0.5116
1711	0.4764
1720	0.3074
1729	0.095
1738	0.0801
1747	0.135
1756	0.2492
1765	0.488
1774	0.5611
1783	0.5864
1792	0.6042
1801	0.6124
1810	0.623
1819	0.6303
1828	0.6363
1837	0.6394
1846	0.642
1855	0.6436
1864	0.6448
1873	0.6462
1882	0.6461
1891	0.6456
1900	0.6448
1909	0.6441
1918	0.6435
1927	0.643
1936	0.643
1945	0.6421
1954	0.6407
1963	0.6404
1972	0.6395
1981	0.6404
1990	0.6404
1999	0.6328
2008	0.6314
2017	0.6313
2026	0.631
2035	0.6308
2044	0.6308
2053	0.6303
2062	0.6295
2071	0.6274
2080	0.6276
2089	0.6261
2098	0.6243
2107	0.6236
2116	0.626
2125	0.6288
2134	0.6289
2143	0.6282
2152	0.6281
2161	0.6293
2170	0.6331
2179	0.6332
2188	0.6326
2197	0.6339
2206	0.6352
2215	0.6348
2224	0.6343
2233	0.6342
2242	0.6324
2251	0.6309
2260	0.6298
2269	0.6302
2278	0.631
2287	0.6352
2296	0.6351
2305	0.6346
2314	0.633
2323	0.6317
2332	0.6307
2341	0.6303
2350	0.6303
2359	0.6304
2368	0.6296
2377	0.6286
2386	0.6276
2395	0.6269
2404	0.6261
2413	0.6272
2422	0.6312
2431	0.6293
2440	0.6265
2449	0.6256
2458	0.6236
2467	0.622
2476	0.6207
2485	0.6198
2494	0.6199
2503	0.6204
2512	0.6245
2521	0.6274
2530	0.6268
2539	0.6253
2548	0.6235
2557	0.6213
2566	0.619
2575	0.6174
2584	0.6186
2593	0.6201
2602	0.6214
2611	0.6232
2620	0.6268
2629	0.6236
2638	0.618
2647	0.6178
2656	0.6185
2665	0.62
2674	0.6189
2683	0.6154
2692	0.6158
2701	0.62
2710	0.622
2719	0.6222
2728	0.6208
2737	0.6186
2746	0.6164
2755	0.6146
2764	0.6117
2773	0.6077
2782	0.5989
2791	0.5934
2800	0.5876
2809	0.5814
2818	0.5816
2827	0.5684
2836	0.5622
2845	0.559
2854	0.5547
2863	0.5473
2872	0.531
2881	0.5149
2890	0.5031
2899	0.4961
2908	0.473
2917	0.4429
2926	0.412
2935	0.3818
2944	0.3613
2953	0.3498
2962	0.3431
2971	0.3242
2980	0.3185
2989	0.3304
2998	0.3953
3007	0.4649
3016	0.5078
3025	0.5326
3034	0.5416
3043	0.5506
3052	0.5644
3061	0.577
3070	0.5877
3079	0.5894
3088	0.5898
3097	0.5888
3106	0.5886
3115	0.5908
3124	0.5888
3133	0.5831
3142	0.5855
3151	0.5868
3160	0.5864
3169	0.5777
3178	0.5761
3187	0.5753
3196	0.5738
3205	0.5728
3214	0.572
3223	0.5712
3232	0.5702
3241	0.5654
3250	0.5597
3259	0.5584
3268	0.5582
3277	0.5548
3286	0.5527
3295	0.5531
3304	0.5535
3313	0.5534
3322	0.5517
3331	0.5479
3340	0.5431
3349	0.538
3358	0.5328
3367	0.5277
3376	0.5215
3385	0.5152
3394	0.5088
3403	0.501
3412	0.4934
3421	0.4864
3430	0.4801
3439	0.4736
3448	0.463
3457	0.4505
3466	0.4461
3475	0.4446
3484	0.445
3493	0.4492
3502	0.4559
3511	0.4643
3520	0.467
3529	0.4664
3538	0.466
3547	0.4688
3556	0.4747
3565	0.4806
3574	0.4864
3583	0.4914
3592	0.4933
3601	0.4993
3610	0.5041
3619	0.504
3628	0.5026
3637	0.5017
3646	0.5028
3655	0.5104
3664	0.5195
3673	0.5288
3682	0.538
3691	0.5473
3700	0.5585
3709	0.5665
3718	0.5742
3727	0.5788
3736	0.5796
3745	0.5798
3754	0.5797
3763	0.5799
3772	0.5808
3781	0.5865
3790	0.5893
3799	0.5877
3808	0.5847
3817	0.5824
3826	0.5803
3835	0.5799
3844	0.5794
3853	0.5791
3862	0.5791
3871	0.579
3880	0.5787
3889	0.5778
3898	0.5768
3907	0.5762
3916	0.576
3925	0.5776
3934	0.5804
3943	0.582
3952	0.5821
3961	0.583
3970	0.5892
3979	0.5917
3988	0.5945
3997	0.5964
