Infrared Spectrum: 3-INDOLEACETAMIDE
Formula: C10 H10 N2 O
CAS: 879-37-8
State: SOLID (NUJOL MULL)
Class: COBLENTZ
Instrument: Not specified, most likely a prism, grating, or hybrid spectrometer.
Sampling: TRANSMISSION
Resolution: 4
Origin: DOW CHEMICAL COMPANY
MICROMETERS	TRANSMITTANCE
2.028	0.467
2.06821	0.474
2.10843	0.485
2.14864	0.492
2.18886	0.495
2.22907	0.492
2.26929	0.474
2.3095	0.48
2.34972	0.492
2.38993	0.505
2.43014	0.527
2.47036	0.549
2.51057	0.564
2.55079	0.569
2.591	0.587
2.63122	0.601
2.67143	0.614
2.71164	0.636
2.75186	0.639
2.79207	0.658
2.83229	0.678
2.8725	0.649
2.91272	0.385
2.95293	0.063
2.99315	0.192
3.03336	0.331
3.07357	0.293
3.11379	0.192
3.154	0.204
3.19422	0.34
3.23443	0.396
3.27465	0.391
3.31486	0.381
3.35507	0.164
3.39529	0.013
3.4355	0.015
3.47572	0.026
3.51593	0.115
3.55615	0.453
3.59636	0.577
3.63658	0.603
3.67679	0.596
3.717	0.616
3.75722	0.629
3.79743	0.656
3.83765	0.671
3.87786	0.701
3.91808	0.72
3.95829	0.73
3.99851	0.742
4.03872	0.763
4.07893	0.773
4.11915	0.777
4.15936	0.78
4.19958	0.777
4.23979	0.775
4.28001	0.787
4.32022	0.804
4.36043	0.8
4.40065	0.809
4.44086	0.82
4.48108	0.82
4.52129	0.82
4.56151	0.825
4.60172	0.834
4.64194	0.842
4.68215	0.85
4.72236	0.85
4.76258	0.855
4.80279	0.859
4.84301	0.869
4.88322	0.872
4.92344	0.877
4.96365	0.882
5.00386	0.886
5.04408	0.897
5.08429	0.899
5.12451	0.901
5.16472	0.901
5.20494	0.876
5.24515	0.902
5.28537	0.896
5.32558	0.884
5.36579	0.909
5.40601	0.902
5.44622	0.911
5.48644	0.921
5.52665	0.896
5.56687	0.899
5.60708	0.892
5.64729	0.865
5.68751	0.874
5.72772	0.881
5.76794	0.857
5.80815	0.83
5.84837	0.775
5.88858	0.67
5.9288	0.571
5.96901	0.589
6.00922	0.403
6.04944	0.211
6.08965	0.078
6.12987	0.12
6.17008	0.045
6.2103	0.142
6.25051	0.288
6.29073	0.398
6.33094	0.52
6.37115	0.569
6.41137	0.587
6.45158	0.631
6.4918	0.663
6.53201	0.678
6.57223	0.68
6.61244	0.673
6.65265	0.663
6.69287	0.556
6.73308	0.469
6.7733	0.242
6.81351	0.08
6.85373	0.072
6.89394	0.172
6.93416	0.324
6.97437	0.383
7.01458	0.319
7.0548	0.236
7.09501	0.222
7.13523	0.361
7.17544	0.433
7.21566	0.271
7.25587	0.211
7.29608	0.351
7.3363	0.417
7.37651	0.445
7.41673	0.489
7.45694	0.524
7.49716	0.591
7.53737	0.601
7.57759	0.546
7.6178	0.532
7.65801	0.603
7.69823	0.584
7.73844	0.438
7.77866	0.311
7.81887	0.42
7.85909	0.546
7.8993	0.579
7.93952	0.589
7.97973	0.601
8.01994	0.621
8.06016	0.494
8.10037	0.351
8.14059	0.566
8.1808	0.636
8.22102	0.664
8.26123	0.675
8.30144	0.678
8.34166	0.673
8.38187	0.621
8.42209	0.581
8.4623	0.618
8.50252	0.658
8.54273	0.688
8.58295	0.705
8.62316	0.695
8.66337	0.7
8.70359	0.725
8.7438	0.743
8.78402	0.753
8.82423	0.75
8.86445	0.743
8.90466	0.745
8.94487	0.75
8.98509	0.723
9.0253	0.641
9.06552	0.509
9.10573	0.413
9.14595	0.462
9.18616	0.592
9.22638	0.683
9.26659	0.718
9.3068	0.705
9.34702	0.676
9.38723	0.706
9.42745	0.738
9.46766	0.738
9.50788	0.72
9.54809	0.691
9.58831	0.673
9.62852	0.658
9.66873	0.648
9.70895	0.641
9.74916	0.641
9.78938	0.659
9.82959	0.685
9.86981	0.69
9.91002	0.571
9.95023	0.631
9.99045	0.723
10.0307	0.753
10.0709	0.773
10.1111	0.783
10.1513	0.788
10.1915	0.793
10.2317	0.792
10.2719	0.792
10.3122	0.8
10.3524	0.8
10.3926	0.807
10.4328	0.812
10.473	0.82
10.5132	0.822
10.5535	0.829
10.5937	0.829
10.6339	0.824
10.6741	0.804
10.7143	0.743
10.7545	0.69
10.7947	0.723
10.835	0.763
10.8752	0.809
10.9154	0.832
10.9556	0.842
10.9958	0.847
11.036	0.849
11.0762	0.85
11.1165	0.84
11.1567	0.829
11.1969	0.805
11.2371	0.788
11.2773	0.795
11.3175	0.832
11.3577	0.849
11.398	0.819
11.4382	0.817
11.4784	0.829
11.5186	0.835
11.5588	0.839
11.599	0.837
11.6392	0.819
11.6795	0.78
11.7197	0.72
11.7599	0.576
11.8001	0.499
11.8403	0.492
11.8805	0.574
11.9207	0.671
11.961	0.733
12.0012	0.763
12.0414	0.775
12.0816	0.777
12.1218	0.777
12.162	0.767
12.2022	0.752
12.2425	0.735
12.2827	0.715
12.3229	0.695
12.3631	0.671
12.4033	0.644
12.4435	0.606
12.4837	0.547
12.524	0.492
12.5642	0.425
12.6044	0.407
12.6446	0.408
12.6848	0.428
12.725	0.463
12.7652	0.489
12.8055	0.515
12.8457	0.544
12.8859	0.559
12.9261	0.577
12.9663	0.596
13.0065	0.614
13.0467	0.624
13.087	0.631
13.1272	0.614
13.1674	0.581
13.2076	0.544
13.2478	0.485
13.288	0.43
13.3282	0.44
13.3685	0.447
13.4087	0.319
13.4489	0.18
13.4891	0.058
13.5293	0.06
13.5695	0.108
13.6097	0.217
13.65	0.412
13.6902	0.512
13.7304	0.539
13.7706	0.551
13.8108	0.556
13.851	0.566
13.8912	0.584
13.9315	0.611
13.9717	0.633
14.0119	0.653
14.0521	0.664
14.0923	0.671
14.1325	0.678
14.1727	0.685
14.213	0.685
14.2532	0.683
14.2934	0.68
14.3336	0.676
14.3738	0.673
14.414	0.663
14.4542	0.656
14.4945	0.651
14.5347	0.644
14.5749	0.638
14.6151	0.623
14.6553	0.613
14.6955	0.603
14.7357	0.589
14.776	0.572
14.8162	0.556
14.8564	0.547
14.8966	0.532
14.9368	0.514
14.977	0.5
15.0172	0.467
15.0575	0.443
15.0977	0.428
15.1379	0.425
15.1781	0.422
15.2183	0.418
15.2585	0.413
15.2987	0.41
15.339	0.4
15.3792	0.391
15.4194	0.386
15.4596	0.381
15.4998	0.376
15.54	0.371
15.5802	0.366
15.6205	0.361
15.6607	0.356
15.7009	0.355
15.7411	0.351
15.7813	0.351
15.8215	0.351
15.8617	0.351
15.902	0.351
15.9422	0.351
15.9824	0.351
