Infrared Spectrum: 9H-PURINE-6(1H)-ONE, 2-AMINO-9-ETHYL-
Formula: C7 H9 N5 O
CAS: 879-08-3
State: SOLID (0.9 mg / 650 mg KBr DISC)
Class: COBLENTZ III
Instrument: PERKIN-ELMER 21 (GRATING)
Instrument parameters: FILTER CHANGE ABOUT 1025 CM^-^1
Sampling: TRANSMISSION
Resolution: 2
Origin: SOUTHERN RESEARCH INSTITUTE
1/CM	TRANSMITTANCE
603.04	0.4404
612.069	0.4388
621.099	0.4367
630.128	0.4354
639.158	0.4349
648.187	0.4367
657.217	0.4428
666.246	0.4135
675.276	0.3374
684.305	0.514
693.335	0.5193
702.364	0.4218
711.394	0.4111
720.423	0.3787
729.453	0.476
738.482	0.6558
747.512	0.694
756.541	0.6901
765.571	0.6529
774.6	0.5262
783.63	0.4516
792.659	0.6106
801.689	0.6113
810.718	0.5932
819.748	0.5575
828.777	0.5415
837.806	0.5431
846.836	0.5419
855.865	0.5141
864.895	0.5696
873.924	0.6346
882.954	0.6318
891.983	0.6202
901.013	0.6087
910.042	0.6047
919.072	0.603
928.101	0.6014
937.131	0.6004
946.16	0.5998
955.19	0.5932
964.219	0.5797
973.249	0.5821
982.278	0.615
991.308	0.6109
1000.34	0.6067
1009.37	0.604
1018.4	0.6217
1027.43	0.5445
1036.46	0.4372
1045.48	0.4299
1054.51	0.6295
1063.54	0.6173
1072.57	0.543
1081.6	0.4687
1090.63	0.555
1099.66	0.5957
1108.69	0.5766
1117.72	0.5984
1126.75	0.5985
1135.78	0.5887
1144.81	0.5729
1153.84	0.5479
1162.87	0.4946
1171.9	0.4128
1180.93	0.3241
1189.96	0.5
1198.99	0.5081
1208.02	0.5739
1217.04	0.6208
1226.07	0.6082
1235.1	0.577
1244.13	0.5456
1253.16	0.498
1262.19	0.4279
1271.22	0.3442
1280.25	0.484
1289.28	0.4355
1298.31	0.3453
1307.34	0.5653
1316.37	0.5449
1325.4	0.4969
1334.43	0.4383
1343.46	0.447
1352.49	0.3617
1361.52	0.3396
1370.55	0.3926
1379.58	0.4301
1388.6	0.4623
1397.63	0.5745
1406.66	0.6009
1415.69	0.5824
1424.72	0.5556
1433.75	0.5121
1442.78	0.4673
1451.81	0.4225
1460.84	0.3697
1469.87	0.372
1478.9	0.4502
1487.93	0.436
1496.96	0.4023
1505.99	0.3478
1515.02	0.2975
1524.05	0.2132
1533.08	0.2288
1542.11	0.2772
1551.14	0.2333
1560.16	0.1634
1569.19	0.1181
1578.22	0.0703
1587.25	0.0919
1596.28	0.115
1605.31	0.1449
1614.34	0.1957
1623.37	0.1549
1632.4	0.0664
1641.43	0.1038
1650.46	0.1549
1659.49	0.2051
1668.52	0.4974
1677.55	0.5317
1686.58	0.3625
1695.61	0.1921
1704.64	0.1595
1713.67	0.1767
1722.7	0.2339
1731.72	0.3493
1740.75	0.442
1749.78	0.6238
1758.81	0.688
1767.84	0.7217
1776.87	0.762
1785.9	0.7923
1794.93	0.8134
1803.96	0.8353
1812.99	0.8541
1822.02	0.867
1831.05	0.8747
1840.08	0.8757
1849.11	0.8745
1858.14	0.8729
1867.17	0.8727
1876.2	0.873
1885.23	0.8736
1894.26	0.8735
1903.29	0.8728
1912.31	0.8721
1921.34	0.8714
1930.37	0.8695
1939.4	0.8667
1948.43	0.8618
1957.46	0.8585
1966.49	0.8565
1975.52	0.8547
1984.55	0.8521
1993.58	0.8486
2002.61	0.845
2011.64	0.8404
2020.67	0.8347
2029.7	0.829
2038.73	0.8223
2047.76	0.8133
2056.79	0.8035
2065.82	0.803
2074.85	0.8038
2083.87	0.8049
2092.9	0.8048
2101.93	0.804
2110.96	0.8032
2119.99	0.8004
2129.02	0.7961
2138.05	0.7916
2147.08	0.7873
2156.11	0.783
2165.14	0.778
2174.17	0.7729
2183.2	0.7682
2192.23	0.7636
2201.26	0.7589
2210.29	0.7544
2219.32	0.7498
2228.35	0.7454
2237.38	0.7412
2246.41	0.7377
2255.43	0.7341
2264.46	0.7303
2273.49	0.7259
2282.52	0.7187
2291.55	0.7085
2300.58	0.6961
2309.61	0.6853
2318.64	0.6783
2327.67	0.6774
2336.7	0.6773
2345.73	0.6772
2354.76	0.6777
2363.79	0.681
2372.82	0.6896
2381.85	0.6842
2390.88	0.6792
2399.91	0.6744
2408.94	0.6694
2417.97	0.6644
2426.99	0.6595
2436.02	0.656
2445.05	0.6519
2454.08	0.6461
2463.11	0.6469
2472.14	0.6459
2481.17	0.641
2490.2	0.6352
2499.23	0.6294
2508.26	0.6232
2517.29	0.6169
2526.32	0.6109
2535.35	0.6049
2544.38	0.5991
2553.41	0.5933
2562.44	0.5879
2571.47	0.5828
2580.5	0.5777
2589.53	0.5734
2598.56	0.5694
2607.58	0.5662
2616.61	0.5634
2625.64	0.5594
2634.67	0.5538
2643.7	0.546
2652.73	0.5355
2661.76	0.5194
2670.79	0.5029
2679.82	0.4897
2688.85	0.4775
2697.88	0.4655
2706.91	0.4536
2715.94	0.4436
2724.97	0.4356
2734	0.4275
2743.03	0.424
2752.06	0.4233
2761.09	0.4238
2770.12	0.4212
2779.14	0.4088
2788.17	0.3861
2797.2	0.3624
2806.23	0.3437
2815.26	0.3374
2824.29	0.3371
2833.32	0.3376
2842.35	0.3383
2851.38	0.3369
2860.41	0.3287
2869.44	0.3209
2878.47	0.3155
2887.5	0.3095
2896.53	0.3028
2905.56	0.296
2914.59	0.2915
2923.62	0.2886
2932.65	0.289
2941.68	0.2904
2950.7	0.2934
2959.73	0.2999
2968.76	0.3111
2977.79	0.3219
2986.82	0.3254
2995.85	0.3233
3004.88	0.3215
3013.91	0.3212
3022.94	0.3203
3031.97	0.319
3041	0.3178
3050.03	0.3165
3059.06	0.3152
3068.09	0.3118
3077.12	0.3054
3086.15	0.3006
3095.18	0.2983
3104.21	0.2977
3113.24	0.2987
3122.26	0.3012
3131.29	0.3036
3140.32	0.3043
3149.35	0.3014
3158.38	0.2919
3167.41	0.2758
3176.44	0.2602
3185.47	0.2527
3194.5	0.2522
3203.53	0.2558
3212.56	0.2639
3221.59	0.2768
3230.62	0.2907
3239.65	0.3084
3248.68	0.3256
3257.71	0.3288
3266.74	0.3276
3275.77	0.3226
3284.8	0.3166
3293.83	0.3108
3302.85	0.3051
3311.88	0.3008
3320.91	0.3039
3329.94	0.3204
3338.97	0.3502
3348	0.3889
3357.03	0.4264
3366.06	0.4432
3375.09	0.4583
3384.12	0.4577
3393.15	0.4531
3402.18	0.4403
3411.21	0.4132
3420.24	0.3603
3429.27	0.3067
3438.3	0.2811
3447.33	0.2811
3456.36	0.3176
3465.39	0.4383
3474.41	0.5499
3483.44	0.5742
3492.47	0.5898
3501.5	0.6022
3510.53	0.6075
3519.56	0.6094
3528.59	0.6149
3537.62	0.6211
3546.65	0.6282
3555.68	0.6337
3564.71	0.6391
3573.74	0.6442
3582.77	0.6506
3591.8	0.6563
3600.83	0.6597
3609.86	0.6626
3618.89	0.6643
3627.92	0.6656
3636.95	0.6662
3645.97	0.6667
3655	0.667
3664.03	0.6674
3673.06	0.6678
3682.09	0.6671
3691.12	0.6664
3700.15	0.665
3709.18	0.6634
3718.21	0.66
3727.24	0.6576
3736.27	0.6568
3745.3	0.6567
3754.33	0.6572
3763.36	0.6578
3772.39	0.6583
3781.42	0.6585
3790.45	0.6586
3799.48	0.6583
3808.51	0.6562
3817.53	0.6533
3826.56	0.6491
3835.59	0.6377
3844.62	0.6278
3853.65	0.6219
3862.68	0.617
3871.71	0.6135
3880.74	0.6118
3889.77	0.6114
3898.8	0.6116
3907.83	0.6113
3916.86	0.6112
3925.89	0.6114
3934.92	0.6115
3943.95	0.6114
3952.98	0.6117
