Infrared Spectrum: 1-NAPHTHOYL CHLORIDE
Formula: C11 H7 Cl O
CAS: 879-18-5
State: LIQUID
Class: COBLENTZ
Instrument: Not specified, most likely a prism, grating, or hybrid spectrometer.
Sampling: TRANSMISSION
Path length: 0.003 CM
Resolution: 4
Origin: WYANDOTTE CHEMICALS CORP., WYANDOTTE, MICHIGAN, USA
MICROMETERS	TRANSMITTANCE
2.033	0.94
2.07279	0.93
2.11258	0.938
2.15237	0.938
2.19217	0.941
2.23196	0.935
2.27175	0.933
2.31154	0.935
2.35133	0.933
2.39112	0.935
2.43092	0.94
2.47071	0.93
2.5105	0.933
2.55029	0.93
2.59008	0.941
2.62987	0.956
2.66966	0.95
2.70946	0.955
2.74925	0.951
2.78904	0.92
2.82883	0.868
2.86862	0.817
2.90841	0.893
2.94821	0.905
2.988	0.902
3.02779	0.887
3.06758	0.885
3.10737	0.88
3.14716	0.825
3.18695	0.752
3.22675	0.59
3.26654	0.426
3.30633	0.658
3.34612	0.762
3.38591	0.794
3.4257	0.812
3.4655	0.835
3.50529	0.83
3.54508	0.832
3.58487	0.817
3.62466	0.859
3.66445	0.849
3.70424	0.852
3.74404	0.85
3.78383	0.847
3.82362	0.839
3.86341	0.865
3.9032	0.862
3.94299	0.857
3.98279	0.865
4.02258	0.865
4.06237	0.87
4.10216	0.89
4.14195	0.85
4.18174	0.878
4.22153	0.887
4.26133	0.907
4.30112	0.913
4.34091	0.9
4.3807	0.887
4.42049	0.893
4.46028	0.88
4.50008	0.87
4.53987	0.897
4.57966	0.887
4.61945	0.918
4.65924	0.925
4.69903	0.933
4.73882	0.93
4.77862	0.927
4.81841	0.898
4.8582	0.93
4.89799	0.927
4.93778	0.932
4.97757	0.938
5.01737	0.938
5.05716	0.93
5.09695	0.88
5.13674	0.733
5.17653	0.718
5.21632	0.698
5.25612	0.8
5.29591	0.781
5.3357	0.822
5.37549	0.84
5.41528	0.749
5.45507	0.701
5.49486	0.616
5.53466	0.489
5.57445	0.199
5.61424	0.049
5.65403	0.039
5.69382	0.038
5.73361	0.043
5.77341	0.18
5.8132	0.318
5.85299	0.446
5.89278	0.494
5.93257	0.54
5.97236	0.64
6.01215	0.713
6.05195	0.693
6.09174	0.615
6.13153	0.509
6.17132	0.618
6.21111	0.306
6.2509	0.432
6.2907	0.333
6.33049	0.363
6.37028	0.621
6.41007	0.718
6.44986	0.688
6.48965	0.663
6.52944	0.575
6.56924	0.147
6.60903	0.192
6.64882	0.595
6.68861	0.744
6.7284	0.749
6.76819	0.673
6.80799	0.361
6.84778	0.514
6.88757	0.454
6.92736	0.376
6.96715	0.59
7.00694	0.757
7.04673	0.749
7.08653	0.784
7.12632	0.747
7.16611	0.446
7.2059	0.694
7.24569	0.734
7.28548	0.306
7.32528	0.499
7.36507	0.618
7.40486	0.295
7.44465	0.52
7.48444	0.709
7.52423	0.728
7.56402	0.739
7.60382	0.729
7.64361	0.731
7.6834	0.711
7.72319	0.674
7.76298	0.601
7.80277	0.54
7.84257	0.341
7.88236	0.419
7.92215	0.475
7.96194	0.421
8.00173	0.449
8.04152	0.477
8.08131	0.394
8.12111	0.147
8.1609	0.036
8.20069	0.039
8.24048	0.096
8.28027	0.301
8.32006	0.429
8.35986	0.504
8.39965	0.527
8.43944	0.384
8.47923	0.111
8.51902	0.039
8.55881	0.072
8.5986	0.328
8.6384	0.487
8.67819	0.48
8.71798	0.398
8.75777	0.601
8.79756	0.678
8.83735	0.706
8.87715	0.686
8.91694	0.693
8.95673	0.703
8.99652	0.696
9.03631	0.673
9.0761	0.625
9.11589	0.529
9.15569	0.283
9.19548	0.266
9.23527	0.336
9.27506	0.33
9.31485	0.29
9.35464	0.217
9.39444	0.109
9.43423	0.054
9.47402	0.039
9.51381	0.039
9.5536	0.097
9.59339	0.253
9.63318	0.353
9.67298	0.376
9.71277	0.263
9.75256	0.17
9.79235	0.361
9.83214	0.505
9.87193	0.58
9.91173	0.626
9.95152	0.65
9.99131	0.651
10.0311	0.643
10.0709	0.625
10.1107	0.583
10.1505	0.538
10.1903	0.499
10.2301	0.462
10.2698	0.469
10.3096	0.497
10.3494	0.505
10.3892	0.505
10.429	0.462
10.4688	0.444
10.5086	0.507
10.5484	0.585
10.5882	0.606
10.628	0.605
10.6678	0.595
10.7076	0.587
10.7473	0.575
10.7871	0.543
10.8269	0.527
10.8667	0.54
10.9065	0.55
10.9463	0.543
10.9861	0.504
11.0259	0.444
11.0657	0.373
11.1055	0.293
11.1453	0.21
11.1851	0.129
11.2248	0.066
11.2646	0.044
11.3044	0.048
11.3442	0.043
11.384	0.048
11.4238	0.086
11.4636	0.192
11.5034	0.268
11.5432	0.291
11.583	0.341
11.6228	0.461
11.6626	0.55
11.7023	0.601
11.7421	0.643
11.7819	0.658
11.8217	0.678
11.8615	0.698
11.9013	0.703
11.9411	0.704
11.9809	0.703
12.0207	0.698
12.0605	0.686
12.1003	0.653
12.1401	0.616
12.1798	0.577
12.2196	0.517
12.2594	0.446
12.2992	0.306
12.339	0.152
12.3788	0.069
12.4186	0.056
12.4584	0.058
12.4982	0.092
12.538	0.205
12.5778	0.263
12.6176	0.199
12.6573	0.139
12.6971	0.175
12.7369	0.152
12.7767	0.101
12.8165	0.074
12.8563	0.063
12.8961	0.061
12.9359	0.059
12.9757	0.064
13.0155	0.061
13.0553	0.077
13.095	0.117
13.1348	0.16
13.1746	0.17
13.2144	0.157
13.2542	0.114
13.294	0.087
13.3338	0.072
13.3736	0.072
13.4134	0.066
13.4532	0.077
13.493	0.076
13.5328	0.074
13.5725	0.081
13.6123	0.079
13.6521	0.079
13.6919	0.089
13.7317	0.126
13.7715	0.189
13.8113	0.278
13.8511	0.351
13.8909	0.427
13.9307	0.487
13.9705	0.533
14.0103	0.577
14.05	0.605
14.0898	0.625
14.1296	0.641
14.1694	0.655
14.2092	0.668
14.249	0.681
14.2888	0.689
14.3286	0.693
14.3684	0.698
14.4082	0.704
14.448	0.703
14.4878	0.699
14.5275	0.684
14.5673	0.661
14.6071	0.621
14.6469	0.567
14.6867	0.527
14.7265	0.502
14.7663	0.522
14.8061	0.558
14.8459	0.595
14.8857	0.606
14.9255	0.605
14.9653	0.59
15.005	0.575
15.0448	0.555
15.0846	0.475
15.1244	0.383
15.1642	0.346
15.204	0.344
15.2438	0.364
15.2836	0.371
15.3234	0.394
15.3632	0.406
15.403	0.426
15.4428	0.441
15.4825	0.466
15.5223	0.485
15.5621	0.519
15.6019	0.552
15.6417	0.58
15.6815	0.603
15.7213	0.623
15.7611	0.64
15.8009	0.648
15.8407	0.656
15.8805	0.663
15.9202	0.669
15.96	0.671
