Infrared Spectrum: Benzylamine, o-bromo-N-methyl-N-2-propynyl-,
Formula: C11 H12 Br N
CAS: 879-95-8
State: LIQUID (NEAT)
Class: COBLENTZ III
Instrument: PERKIN-ELMER 21 (GRATING)
Instrument parameters: FILTER AT ABOUT 10 MICRONS
Path length: CAPILLARY
Resolution: 2
Origin: ABBOTT LABORATORIES
1/CM	TRANSMITTANCE
668	0.423
677	0.5358
686	0.6515
695	0.7132
704	0.7543
713	0.754
722	0.7785
731	0.761
740	0.5943
749	0.1013
758	0.3398
767	0.7717
776	0.841
785	0.86
794	0.8571
803	0.8319
812	0.8131
821	0.7536
830	0.7766
839	0.7623
848	0.7109
857	0.7812
866	0.7572
875	0.8206
884	0.7865
893	0.6752
902	0.7066
911	0.7948
920	0.8452
929	0.8281
938	0.7379
947	0.7671
956	0.7613
965	0.7376
974	0.6776
983	0.7178
992	0.7641
1001	0.7512
1010	0.6428
1019	0.2479
1028	0.2664
1037	0.3701
1046	0.5929
1055	0.8151
1064	0.8419
1073	0.8492
1082	0.8483
1091	0.8348
1100	0.7579
1109	0.6846
1118	0.6141
1127	0.508
1136	0.6808
1145	0.7751
1154	0.7949
1163	0.8229
1172	0.7963
1181	0.7211
1190	0.6961
1199	0.7121
1208	0.7911
1217	0.8035
1226	0.7636
1235	0.6752
1244	0.6373
1253	0.6326
1262	0.6381
1271	0.6776
1280	0.7026
1289	0.689
1298	0.6893
1307	0.6599
1316	0.6129
1325	0.5135
1334	0.6538
1343	0.7138
1352	0.6179
1361	0.5014
1370	0.6779
1379	0.7879
1388	0.8021
1397	0.7884
1406	0.6815
1415	0.6138
1424	0.5646
1433	0.3893
1442	0.3613
1451	0.4126
1460	0.388
1469	0.4504
1478	0.7234
1487	0.8062
1496	0.8375
1505	0.8522
1514	0.859
1523	0.863
1532	0.8645
1541	0.8609
1550	0.8441
1559	0.779
1568	0.6596
1577	0.8332
1586	0.8054
1595	0.8124
1604	0.8447
1613	0.8443
1622	0.8494
1631	0.8566
1640	0.862
1649	0.8614
1658	0.8596
1667	0.8584
1676	0.8584
1685	0.8591
1694	0.8605
1703	0.866
1712	0.8727
1721	0.8781
1730	0.8807
1739	0.8834
1748	0.8857
1757	0.8879
1766	0.888
1775	0.8869
1784	0.8833
1793	0.8775
1802	0.8724
1811	0.8736
1820	0.8756
1829	0.8763
1838	0.876
1847	0.8795
1856	0.8828
1865	0.8825
1874	0.8821
1883	0.8813
1892	0.8805
1901	0.877
1910	0.8706
1919	0.8685
1928	0.8716
1937	0.8739
1946	0.8749
1955	0.8754
1964	0.8764
1973	0.8806
1982	0.8847
1991	0.888
2000	0.8903
2009	0.8908
2018	0.8911
2027	0.8913
2036	0.8915
2045	0.8914
2054	0.8913
2063	0.8905
2072	0.8894
2081	0.8871
2090	0.8826
2099	0.8791
2108	0.8859
2117	0.8904
2126	0.8925
2135	0.8936
2144	0.8941
2153	0.8944
2162	0.8945
2171	0.8938
2180	0.8928
2189	0.8918
2198	0.8909
2207	0.89
2216	0.8892
2225	0.8884
2234	0.8877
2243	0.887
2252	0.8865
2261	0.886
2270	0.8859
2279	0.8857
2288	0.8856
2297	0.8855
2306	0.8855
2315	0.8854
2324	0.8854
2333	0.8854
2342	0.8854
2351	0.8859
2360	0.8864
2369	0.8871
2378	0.888
2387	0.8888
2396	0.8888
2405	0.8889
2414	0.8881
2423	0.8873
2432	0.8864
2441	0.8846
2450	0.8828
2459	0.8819
2468	0.8813
2477	0.8816
2486	0.8821
2495	0.8823
2504	0.8816
2513	0.881
2522	0.88
2531	0.879
2540	0.878
2549	0.8764
2558	0.8749
2567	0.8734
2576	0.8717
2585	0.87
2594	0.8682
2603	0.8666
2612	0.8647
2621	0.863
2630	0.8609
2639	0.8585
2648	0.8559
2657	0.8534
2666	0.8487
2675	0.8428
2684	0.836
2693	0.8298
2702	0.824
2711	0.819
2720	0.8126
2729	0.8042
2738	0.7908
2747	0.7678
2756	0.7259
2765	0.6699
2774	0.6165
2783	0.5632
2792	0.5367
2801	0.5551
2810	0.587
2819	0.6013
2828	0.5747
2837	0.5489
2846	0.5588
2855	0.5898
2864	0.6205
2873	0.636
2882	0.6353
2891	0.6287
2900	0.6075
2909	0.5874
2918	0.5805
2927	0.5772
2936	0.5757
2945	0.6102
2954	0.6621
2963	0.6726
2972	0.6798
2981	0.6886
2990	0.7711
2999	0.7936
3008	0.7981
3017	0.8001
3026	0.7956
3035	0.7845
3044	0.7735
3053	0.7628
3062	0.7593
3071	0.7845
3080	0.8202
3089	0.8383
3098	0.8419
3107	0.8436
3116	0.8447
3125	0.8444
3134	0.8419
3143	0.8372
3152	0.8319
3161	0.8251
3170	0.8186
3179	0.8121
3188	0.8058
3197	0.7994
3206	0.7933
3215	0.7872
3224	0.781
3233	0.7739
3242	0.7659
3251	0.7558
3260	0.7027
3269	0.6448
3278	0.5871
3287	0.5298
3296	0.4728
3305	0.4248
3314	0.4193
3323	0.4765
3332	0.7521
3341	0.8644
3350	0.8697
3359	0.8732
3368	0.8747
3377	0.876
3386	0.8773
3395	0.8786
3404	0.8799
3413	0.8812
3422	0.8824
3431	0.8837
3440	0.8848
3449	0.886
3458	0.8872
3467	0.8883
3476	0.8894
3485	0.8905
3494	0.8915
3503	0.8925
3512	0.8933
3521	0.8941
3530	0.8948
3539	0.895
3548	0.8951
3557	0.8953
3566	0.8951
3575	0.8947
3584	0.8944
3593	0.8939
3602	0.8932
3611	0.8924
3620	0.8917
3629	0.8911
3638	0.8908
3647	0.8904
3656	0.89
3665	0.8898
3674	0.8899
3683	0.89
3692	0.89
3701	0.8902
3710	0.8907
3719	0.8913
3728	0.8919
3737	0.8922
3746	0.8923
3755	0.8923
3764	0.8919
3773	0.8914
3782	0.8906
3791	0.8893
3800	0.888
3809	0.8866
3818	0.8853
3827	0.884
3836	0.8822
3845	0.8801
3854	0.879
3863	0.8782
3872	0.8775
3881	0.8773
3890	0.8776
3899	0.8778
3908	0.8783
3917	0.8791
3926	0.8801
3935	0.8811
3944	0.8824
3953	0.8836
3962	0.8848
3971	0.886
3980	0.8872
3989	0.8885
3998	0.8895
