Infrared Spectrum: ACRYLONITRILE, 2-FURAN-
Formula: C7 H5 N O
CAS: 87995-19-5
State: LIQUID (NEAT)
Class: COBLENTZ III
Instrument: DOW KBr FOREPRISM-GRATING
Instrument parameters: BLAZED AT 3.5, 12.0, 20.0 MICRON AND CHANGED AT 5.0, 7.5, 14.9 MICRON
Sampling: TRANSMISSION
Path length: CAPILLARY
Resolution: 2
Origin: DOW CHEMICAL COMPANY
1/CM	TRANSMITTANCE
381	0.7768
390	0.7783
399	0.7818
408	0.7915
417	0.8837
426	0.9033
435	0.9132
444	0.9221
453	0.9284
462	0.9327
471	0.9315
480	0.9239
489	0.9256
498	0.9343
507	0.9181
516	0.8637
525	0.91
534	0.9303
543	0.9397
552	0.937
561	0.9316
570	0.9215
579	0.873
588	0.3427
597	0.7395
606	0.6395
615	0.9275
624	0.9316
633	0.9275
642	0.9178
651	0.842
660	0.7615
669	0.8536
678	0.896
687	0.8916
696	0.8761
705	0.7656
714	0.8283
723	0.7861
732	0.5712
741	0.2502
750	0.0278
759	0.0427
768	0.0783
777	0.2637
786	0.6078
795	0.7044
804	0.4759
813	0.3536
822	0.5349
831	0.5689
840	0.7087
849	0.8161
858	0.8321
867	0.8069
876	0.7315
885	0.1439
894	0.7842
903	0.7951
912	0.6531
921	0.4177
930	0.1859
939	0.5899
948	0.3338
957	0.1565
966	0.2872
975	0.5437
984	0.7233
993	0.7176
1002	0.635
1011	0.2923
1020	0.0876
1029	0.3944
1038	0.7384
1047	0.7738
1056	0.7808
1065	0.7637
1074	0.653
1083	0.5256
1092	0.7838
1101	0.7945
1110	0.7911
1119	0.7925
1128	0.7857
1137	0.7346
1146	0.4353
1155	0.3745
1164	0.7382
1173	0.7395
1182	0.5962
1191	0.7011
1200	0.6289
1209	0.7206
1218	0.7306
1227	0.7682
1236	0.7581
1245	0.7007
1254	0.5387
1263	0.4212
1272	0.3673
1281	0.4432
1290	0.5448
1299	0.6575
1308	0.7103
1317	0.7547
1326	0.7717
1335	0.7786
1344	0.7804
1353	0.7735
1362	0.7378
1371	0.563
1380	0.7035
1389	0.423
1398	0.6152
1407	0.7398
1416	0.7571
1425	0.763
1434	0.7576
1443	0.7583
1452	0.7432
1461	0.5624
1470	0.2427
1479	0.1127
1488	0.5914
1497	0.6472
1506	0.6831
1515	0.7035
1524	0.7151
1533	0.7118
1542	0.6615
1551	0.4174
1560	0.6725
1569	0.6072
1578	0.5929
1587	0.5818
1596	0.4745
1605	0.2848
1614	0.106
1623	0.012
1632	0.0989
1641	0.5116
1650	0.6687
1659	0.6837
1668	0.6428
1677	0.5867
1686	0.5793
1695	0.6054
1704	0.6528
1713	0.6737
1722	0.7026
1731	0.7261
1740	0.7292
1749	0.731
1758	0.7444
1767	0.7603
1776	0.7724
1785	0.7936
1794	0.8217
1803	0.8408
1812	0.853
1821	0.8583
1830	0.8613
1839	0.863
1848	0.8632
1857	0.8628
1866	0.8618
1875	0.8609
1884	0.8575
1893	0.8523
1902	0.8498
1911	0.8505
1920	0.8521
1929	0.8531
1938	0.8537
1947	0.8547
1956	0.8562
1965	0.8585
1974	0.8596
1983	0.8591
1992	0.8562
2001	0.7915
2010	0.775
2019	0.771
2028	0.7704
2037	0.7734
2046	0.7771
2055	0.779
2064	0.7778
2073	0.7728
2082	0.7642
2091	0.7594
2100	0.7701
2109	0.7826
2118	0.7838
2127	0.7832
2136	0.779
2145	0.7697
2154	0.7533
2163	0.7478
2172	0.7661
2181	0.7608
2190	0.7196
2199	0.5828
2208	0.0888
2217	0.0456
2226	0.4133
2235	0.6995
2244	0.7488
2253	0.7615
2262	0.7634
2271	0.7668
2280	0.78
2289	0.7865
2298	0.7901
2307	0.7937
2316	0.7978
2325	0.8004
2334	0.8008
2343	0.795
2352	0.791
2361	0.7914
2370	0.7905
2379	0.7858
2388	0.781
2397	0.7775
2406	0.7808
2415	0.7825
2424	0.7826
2433	0.7818
2442	0.7806
2451	0.7792
2460	0.7808
2469	0.7861
2478	0.7867
2487	0.7851
2496	0.7851
2505	0.7847
2514	0.7822
2523	0.7771
2532	0.7683
2541	0.7558
2550	0.7597
2559	0.7741
2568	0.7861
2577	0.7898
2586	0.7907
2595	0.7876
2604	0.7821
2613	0.7747
2622	0.7788
2631	0.7842
2640	0.7861
2649	0.7886
2658	0.7925
2667	0.7965
2676	0.7971
2685	0.7943
2694	0.7956
2703	0.8007
2712	0.8025
2721	0.8005
2730	0.7958
2739	0.7915
2748	0.7922
2757	0.7957
2766	0.7991
2775	0.8008
2784	0.8
2793	0.794
2802	0.7862
2811	0.7826
2820	0.7868
2829	0.7892
2838	0.7845
2847	0.776
2856	0.7761
2865	0.7854
2874	0.7839
2883	0.7764
2892	0.7745
2901	0.7747
2910	0.7751
2919	0.7751
2928	0.7753
2937	0.7746
2946	0.7738
2955	0.773
2964	0.7721
2973	0.7708
2982	0.7699
2991	0.7675
3000	0.7615
3009	0.7535
3018	0.7434
3027	0.7254
3036	0.6904
3045	0.6425
3054	0.5067
3063	0.449
3072	0.5579
3081	0.5859
3090	0.5839
3099	0.5887
3108	0.6206
3117	0.602
3126	0.493
3135	0.5212
3144	0.5255
3153	0.5398
3162	0.6711
3171	0.7018
3180	0.7194
3189	0.7449
3198	0.751
3207	0.7486
3216	0.7491
3225	0.7653
3234	0.7675
3243	0.7701
3252	0.7785
3261	0.7861
3270	0.7907
3279	0.7948
3288	0.7982
3297	0.8012
3306	0.8043
3315	0.8047
3324	0.8043
3333	0.8033
3342	0.8022
3351	0.8021
3360	0.8045
3369	0.8072
3378	0.8101
3387	0.8125
3396	0.8155
3405	0.8182
3414	0.8207
3423	0.8225
3432	0.8216
3441	0.8205
3450	0.8195
3459	0.8181
3468	0.8165
3477	0.815
3486	0.8133
3495	0.8115
3504	0.8096
3513	0.8075
3522	0.8055
3531	0.8067
3540	0.8099
3549	0.8125
3558	0.8158
3567	0.8192
3576	0.822
3585	0.8225
3594	0.8213
3603	0.8176
3612	0.8182
3621	0.8198
3630	0.8218
3639	0.8239
3648	0.826
3657	0.8309
3666	0.837
3675	0.8446
3684	0.8523
3693	0.8604
3702	0.8647
3711	0.8654
3720	0.8657
3729	0.8655
3738	0.8654
3747	0.8644
3756	0.8621
3765	0.8612
3774	0.862
3783	0.8625
3792	0.8628
