Infrared Spectrum: 2-FUROIC ACID
Formula: C5 H4 O3
CAS: 88-14-2
State: SOLID (SPLIT MULL)
Class: COBLENTZ III
Instrument: DOW KBr FOREPRISM-GRATING
Instrument parameters: BLAZED AT 3.5, 12.0, 20.0 AND CHANGED AT 5.0, 7.5, 14.9 MICRON
Sampling: TRANSMISSION
Resolution: 2
Origin: DOW CHEMICAL COMPANY
1/CM	TRANSMITTANCE
3798	0.6275
3789	0.6287
3780	0.6301
3771	0.6312
3762	0.6329
3753	0.6347
3744	0.6377
3735	0.6419
3726	0.6442
3717	0.6447
3708	0.6448
3699	0.6448
3690	0.6453
3681	0.6458
3672	0.6482
3663	0.6504
3654	0.6525
3645	0.6547
3636	0.6565
3627	0.6585
3618	0.6605
3609	0.6625
3600	0.6649
3591	0.6671
3582	0.6693
3573	0.6715
3564	0.6745
3555	0.6775
3546	0.6807
3537	0.6838
3528	0.6868
3519	0.6897
3510	0.6925
3501	0.6951
3492	0.6978
3483	0.7007
3474	0.7034
3465	0.7061
3456	0.7087
3447	0.7114
3438	0.7144
3429	0.7182
3420	0.7219
3411	0.7258
3402	0.7296
3393	0.7333
3384	0.7368
3375	0.7403
3366	0.7437
3357	0.7468
3348	0.7491
3339	0.7511
3330	0.7532
3321	0.7549
3312	0.7556
3303	0.7545
3294	0.7537
3285	0.7562
3276	0.7575
3267	0.7556
3258	0.7518
3249	0.7471
3240	0.7414
3231	0.7351
3222	0.7287
3213	0.7221
3204	0.7158
3195	0.7105
3186	0.7037
3177	0.696
3168	0.6775
3159	0.6611
3150	0.6511
3141	0.5003
3132	0.5482
3123	0.555
3114	0.5881
3105	0.5878
3096	0.5786
3087	0.5645
3078	0.553
3069	0.542
3060	0.5317
3051	0.5227
3042	0.516
3033	0.5103
3024	0.5053
3015	0.5006
3006	0.4962
2997	0.4923
2988	0.4901
2979	0.4884
2970	0.487
2961	0.4865
2952	0.4893
2943	0.4958
2934	0.4973
2925	0.4899
2916	0.4799
2907	0.4676
2898	0.4572
2889	0.4522
2880	0.4553
2871	0.4584
2862	0.4523
2853	0.4472
2844	0.45
2835	0.4552
2826	0.461
2817	0.4687
2808	0.471
2799	0.471
2790	0.4738
2781	0.4853
2772	0.4962
2763	0.5076
2754	0.5206
2745	0.5328
2736	0.5436
2727	0.5523
2718	0.5551
2709	0.5357
2700	0.5082
2691	0.499
2682	0.4981
2673	0.4825
2664	0.4684
2655	0.4655
2646	0.482
2637	0.5037
2628	0.5231
2619	0.5358
2610	0.5374
2601	0.5056
2592	0.4771
2583	0.4605
2574	0.4554
2565	0.4566
2556	0.4606
2547	0.4651
2538	0.471
2529	0.4799
2520	0.4892
2511	0.496
2502	0.499
2493	0.5018
2484	0.506
2475	0.5104
2466	0.5158
2457	0.5217
2448	0.5272
2439	0.5317
2430	0.5362
2421	0.5399
2412	0.5432
2403	0.5462
2394	0.5492
2385	0.5519
2376	0.5543
2367	0.5567
2358	0.5591
2349	0.5615
2340	0.564
2331	0.5665
2322	0.5704
2313	0.5749
2304	0.581
2295	0.5879
2286	0.5968
2277	0.6056
2268	0.6144
2259	0.6218
2250	0.6287
2241	0.6364
2232	0.6444
2223	0.6549
2214	0.6678
2205	0.6707
2196	0.6728
2187	0.6776
2178	0.6886
2169	0.6987
2160	0.7093
2151	0.7201
2142	0.7275
2133	0.7345
2124	0.7407
2115	0.7465
2106	0.7519
2097	0.758
2088	0.764
2079	0.7661
2070	0.7631
2061	0.7589
2052	0.7547
2043	0.7578
2034	0.7667
2025	0.7807
2016	0.7968
2007	0.8012
1998	0.7653
1989	0.7992
1980	0.8049
1971	0.8092
1962	0.8121
1953	0.813
1944	0.8117
1935	0.8064
1926	0.8001
1917	0.7947
1908	0.7968
1899	0.8045
1890	0.8112
1881	0.8171
1872	0.8228
1863	0.8291
1854	0.8361
1845	0.8431
1836	0.8497
1827	0.8559
1818	0.8608
1809	0.8648
1800	0.8675
1791	0.8634
1782	0.861
1773	0.8727
1764	0.8665
1755	0.8355
1746	0.7854
1737	0.7344
1728	0.5818
1719	0.4457
1710	0.3095
1701	0.2015
1692	0.1796
1683	0.1965
1674	0.2392
1665	0.29
1656	0.3427
1647	0.3873
1638	0.4523
1629	0.5093
1620	0.5658
1611	0.5838
1602	0.6209
1593	0.604
1584	0.3151
1575	0.4604
1566	0.5188
1557	0.5924
1548	0.6171
1539	0.6157
1530	0.5473
1521	0.7531
1512	0.8151
1503	0.8374
1494	0.6303
1485	0.2668
1476	0.2734
1467	0.4203
1458	0.5229
1449	0.5817
1440	0.6219
1431	0.3603
1422	0.4077
1413	0.4965
1404	0.5616
1395	0.5975
1386	0.493
1377	0.5616
1368	0.5804
1359	0.604
1350	0.4153
1341	0.7014
1332	0.5079
1323	0.3296
1314	0.2396
1305	0.187
1296	0.3726
1287	0.5774
1278	0.6571
1269	0.7119
1260	0.7445
1251	0.7638
1242	0.5697
1233	0.7257
1224	0.7793
1215	0.7801
1206	0.7168
1197	0.3506
1188	0.495
1179	0.6226
1170	0.7265
1161	0.7715
1152	0.7842
1143	0.7555
1134	0.7461
1125	0.4718
1116	0.7375
1107	0.7853
1098	0.7969
1089	0.8011
1080	0.6276
1071	0.7719
1062	0.7925
1053	0.8041
1044	0.8081
1035	0.805
1026	0.7468
1017	0.4112
1008	0.7348
999	0.7728
990	0.7851
981	0.7881
972	0.7814
963	0.7794
954	0.771
945	0.7514
936	0.5512
927	0.546
918	0.5089
909	0.5597
900	0.6689
891	0.4304
882	0.6401
873	0.7351
864	0.7805
855	0.763
846	0.7737
837	0.7922
828	0.7933
819	0.7897
810	0.7888
801	0.7887
792	0.7884
783	0.7753
774	0.4849
765	0.2184
756	0.5158
747	0.7408
738	0.7669
729	0.7586
720	0.7556
711	0.8006
702	0.8244
693	0.8333
684	0.8321
675	0.8281
666	0.8477
657	0.8571
648	0.8589
639	0.8605
630	0.8627
621	0.8596
612	0.7074
603	0.8242
594	0.8184
585	0.8492
576	0.8348
567	0.768
558	0.5577
549	0.6321
540	0.7803
531	0.8099
522	0.8213
513	0.8284
504	0.8312
495	0.8321
486	0.7987
477	0.8281
468	0.8282
459	0.8246
