Infrared Spectrum: Diethyl carbamyl chloride
Formula: C 5 H 10 Cl N O
CAS: 88-10-8
State: gas
Origin: EPA-IR VAPOR PHASE LIBRARY
1/CM	ABSORBANCE
549.8	0.0009102
559.445	0.0013049
569.09	0.001446
578.734	0.002206
588.379	0.002916
598.024	0.002906
607.669	0.003086
617.313	0.003406
626.958	0.005706
636.603	0.012516
646.248	0.027186
655.893	0.035566
665.537	0.029456
675.182	0.021056
684.827	0.009906
694.472	0.003866
704.116	0.001666
713.761	0.0012345
723.406	0.001426
733.051	0.001476
742.695	0.002336
752.34	0.002886
761.985	0.003586
771.63	0.006186
781.275	0.009946
790.919	0.010956
800.564	0.008856
810.209	0.008516
819.854	0.013986
829.498	0.033856
839.143	0.063726
848.788	0.070606
858.433	0.041296
868.078	0.014926
877.722	0.007696
887.367	0.005346
897.012	0.003906
906.657	0.003206
916.301	0.003446
925.946	0.005156
935.591	0.008206
945.236	0.008846
954.88	0.006266
964.525	0.004446
974.17	0.005016
983.815	0.006566
993.46	0.009596
1003.1	0.011856
1012.75	0.011036
1022.39	0.008646
1032.04	0.008166
1041.68	0.011206
1051.33	0.018286
1060.97	0.030006
1070.62	0.039936
1080.26	0.050256
1089.91	0.071226
1099.55	0.099046
1109.2	0.110946
1118.84	0.090376
1128.49	0.045616
1138.13	0.020566
1147.78	0.013396
1157.42	0.011036
1167.07	0.010756
1176.71	0.012866
1186.36	0.021146
1196	0.044626
1205.64	0.078666
1215.29	0.088206
1224.93	0.072236
1234.58	0.086586
1244.22	0.114176
1253.87	0.092926
1263.51	0.041046
1273.16	0.016416
1282.8	0.012296
1292.45	0.015246
1302.09	0.022146
1311.74	0.024156
1321.38	0.019186
1331.03	0.014776
1340.67	0.018586
1350.32	0.028876
1359.96	0.043886
1369.61	0.056486
1379.25	0.078406
1388.9	0.095096
1398.54	0.082356
1408.18	0.051056
1417.83	0.025436
1427.47	0.016346
1437.12	0.016376
1446.76	0.021406
1456.41	0.029276
1466.05	0.034986
1475.7	0.029146
1485.34	0.017046
1494.99	0.008516
1504.63	0.005986
1514.28	0.004896
1523.92	0.004266
1533.57	0.003596
1543.21	0.003246
1552.86	0.002886
1562.5	0.002806
1572.15	0.002606
1581.79	0.002566
1591.44	0.002486
1601.08	0.002506
1610.73	0.002696
1620.37	0.003136
1630.01	0.003456
1639.66	0.003546
1649.3	0.003716
1658.95	0.004676
1668.59	0.006636
1678.24	0.009606
1687.88	0.011726
1697.53	0.012346
1707.17	0.014416
1716.82	0.019026
1726.46	0.029406
1736.11	0.067726
1745.75	0.218236
1755.4	0.439736
1765.04	0.466906
1774.69	0.199556
1784.33	0.042056
1793.98	0.016606
1803.62	0.009936
1813.27	0.007396
1822.91	0.007166
1832.55	0.008206
1842.2	0.008026
1851.84	0.005396
1861.49	0.003366
1871.13	0.002546
1880.78	0.002216
1890.42	0.002216
1900.07	0.002096
1909.71	0.001826
1919.36	0.001636
1929	0.001526
1938.65	0.001656
1948.29	0.001846
1957.94	0.001786
1967.58	0.001556
1977.23	0.0012022
1986.87	0.0011071
1996.52	0.0010467
2006.16	0.0010646
2015.81	0.0010947
2025.45	0.0012427
2035.1	0.001446
2044.74	0.001426
2054.38	0.0013304
2064.03	0.0010831
2073.67	0.0009489
2083.32	0.0009598
2092.96	0.0009334
2102.61	0.0008775
2112.25	0.0007867
2121.9	0.0007867
2131.54	0.000712
2141.19	0.0006959
2150.83	0.0008343
2160.48	0.0008461
2170.12	0.0008827
2179.77	0.0009125
2189.41	0.0009631
2199.06	0.0008629
2208.7	0.0010279
2218.35	0.0010294
2227.99	0.0010795
2237.64	0.001023
2247.28	0.0008991
2256.92	0.000727
2266.57	0.000592
2276.21	0.0005726
2285.86	0.0006356
2295.5	0.0006171
2305.15	0.0008447
2314.79	0.0009045
2324.44	0.0011571
2334.08	0.0011856
2343.73	0.0010442
2353.37	0.0010973
2363.02	0.0011344
2372.66	0.0010526
2382.31	0.0009544
2391.95	0.0009471
2401.6	0.0011106
2411.24	0.0012508
2420.89	0.0012083
2430.53	0.001134
2440.18	0.0010209
2449.82	0.0010796
2459.47	0.0012408
2469.11	0.0012224
2478.75	0.0011312
2488.4	0.0012852
2498.04	0.0012402
2507.69	0.0010545
2517.33	0.0010045
2526.98	0.0008762
2536.62	0.0008197
2546.27	0.0006866
2555.91	0.000692
2565.56	0.0007618
2575.2	0.0006472
2584.85	0.0006351
2594.49	0.0006939
2604.14	0.0007791
2613.78	0.0007813
2623.43	0.0007671
2633.07	0.0006963
2642.72	0.0007123
2652.36	0.0007284
2662.01	0.0007085
2671.65	0.0007883
2681.29	0.0010134
2690.94	0.0011527
2700.58	0.0011263
2710.23	0.0011399
2719.87	0.0011138
2729.52	0.0011918
2739.16	0.001526
2748.81	0.001806
2758.45	0.002006
2768.1	0.002116
2777.74	0.002106
2787.39	0.002256
2797.03	0.002656
2806.68	0.002956
2816.32	0.003506
2825.97	0.003806
2835.61	0.004276
2845.26	0.005146
2854.9	0.006356
2864.55	0.008866
2874.19	0.014536
2883.84	0.021066
2893.48	0.024486
2903.12	0.024536
2912.77	0.023846
2922.41	0.025096
2932.06	0.032986
2941.7	0.045566
2951.35	0.048506
2960.99	0.043476
2970.64	0.048866
2980.28	0.062226
2989.93	0.065706
2999.57	0.049476
3009.22	0.030586
3018.86	0.015976
3028.51	0.008996
3038.15	0.006246
3047.8	0.004706
3057.44	0.003826
3067.09	0.003546
3076.73	0.003066
3086.38	0.002606
3096.02	0.002526
3105.67	0.002396
3115.31	0.002216
3124.95	0.002456
3134.6	0.002476
3144.24	0.002406
3153.89	0.002716
3163.53	0.002456
3173.18	0.002186
3182.82	0.001576
3192.47	0.001396
3202.11	0.0010582
3211.76	0.0010062
3221.4	0.0007267
3231.05	0.0008421
3240.69	0.0006949
3250.34	0.0005032
3259.98	0.0005991
3269.63	0.000597
3279.27	0.0005736
3288.92	0.0005329
3298.56	0.0002894
3308.21	0.000379389
3317.85	0.00038926
3327.49	0.0005259
3337.14	0.0003433
3346.78	0.0006287
3356.43	0.000205
3366.07	0.00042293
3375.72	0.000698
3385.36	0.0005794
3395.01	0.00036851
3404.65	0.000377014
3414.3	0.0003343
3423.94	0.0005972
3433.59	0.00042118
3443.23	0.0006494
3452.88	0.0007591
3462.52	0.0007547
3472.17	0.0010863
3481.81	0.001886
3491.46	0.003026
3501.1	0.003736
3510.75	0.002946
3520.39	0.001606
3530.04	0.0010847
3539.68	0.0007953
3549.32	0.0006778
3558.97	0.0005353
3568.61	0.00045706
3578.26	0.0003201
3587.9	0.0003512
3597.55	0.0002967
3607.19	0.0003028
3616.84	0.00040626
3626.48	0.00023
3636.13	0.0003155
3645.77	0.00027
3655.42	0.0004913
3665.06	0.00047247
3674.71	0.0003074
3684.35	0.00044381
3694	0.00039256
3703.64	0.0003474
3713.29	0.00041712
3722.93	0.0005704
3732.58	0.00040386
3742.22	0.00037261
3751.86	0.0005218
3761.51	0.0006043
3771.15	0.00038806
3780.8	0.00039128
3790.44	0.00045753
3800.09	0.00042483
3809.73	0.0005031
3819.38	0.00034
3829.02	0.0002951
3838.67	0.00040956
3848.31	0.0003318
3857.96	0.0003921
3867.6	0.0003532
3877.25	0.00044653
3886.89	0.0002925
3896.54	0.000505
3906.18	0.000378052
3915.83	0.00041471
3925.47	0.000193
3935.12	0.00037024
3944.76	0.00043557
3954.41	0.0003879
3964.05	0.0007588
3973.69	0.0005003
3983.34	0.0005103
3992.98	0.0005079
