Infrared Spectrum: 2,2'-METHYLENEBIS[6-TERT-BUTYL-4-ETHYLPHENOL]
Formula: C25 H36 O2
CAS: 88-24-4
State: SOLUTION (CCl4 FOR 2-9.8, AND CS2 FOR 9.8-16.0 MICRONS) VS. SOLVENT
Class: COBLENTZ III
Instrument: BAIRD NaCl PRISM
Sampling: TRANSMISSION
Path length: 0.010, 0.010 CM
Resolution: 4
Origin: WYANDOTTE CHEMICALS CORP.
MICROMETERS	TRANSMITTANCE
1.993	1.008
2.03212	1.007
2.07124	1.004
2.11036	1.003
2.14948	1.008
2.18859	1.002
2.22771	0.979
2.26683	0.958
2.30595	0.973
2.34507	0.981
2.38419	0.985
2.42331	0.985
2.46243	0.982
2.50155	0.979
2.54067	0.971
2.57978	0.973
2.6189	0.98
2.65802	0.979
2.69714	0.99
2.73626	0.942
2.77538	0.574
2.8145	0.611
2.85362	0.357
2.89274	0.122
2.93185	0.176
2.97097	0.262
3.01009	0.558
3.04921	0.749
3.08833	0.82
3.12745	0.869
3.16657	0.877
3.20569	0.89
3.24481	0.9
3.28392	0.806
3.32304	0.665
3.36216	0.271
3.40128	0.022
3.4404	0.042
3.47952	0.096
3.51864	0.127
3.55776	0.546
3.59688	0.785
3.636	0.861
3.67511	0.9
3.71423	0.893
3.75335	0.919
3.79247	0.926
3.83159	0.939
3.87071	0.944
3.90983	0.948
3.94895	0.953
3.98807	0.946
4.02718	0.943
4.0663	0.942
4.10542	0.942
4.14454	0.946
4.18366	0.946
4.22278	0.954
4.2619	0.95
4.30102	0.946
4.34014	0.953
4.37926	0.96
4.41837	0.976
4.45749	0.975
4.49661	0.984
4.53573	0.991
4.57485	0.992
4.61397	0.997
4.65309	0.997
4.69221	1.001
4.73133	0.997
4.77044	1.001
4.80956	1.003
4.84868	1.004
4.8878	1.003
4.92692	1.002
4.96604	1.002
5.00516	0.996
5.04428	0.995
5.0834	1
5.12252	0.991
5.16163	0.993
5.20075	0.995
5.23987	1.001
5.27899	0.998
5.31811	1.002
5.35723	1.001
5.39635	0.996
5.43547	0.995
5.47459	0.995
5.5137	0.991
5.55282	0.981
5.59194	0.966
5.63106	0.938
5.67018	0.903
5.7093	0.878
5.74842	0.928
5.78754	0.952
5.82666	0.963
5.86577	0.961
5.90489	0.961
5.94401	0.959
5.98313	0.944
6.02225	0.933
6.06137	0.927
6.10049	0.914
6.13961	0.884
6.17873	0.761
6.21785	0.732
6.25696	0.732
6.29608	0.773
6.3352	0.766
6.37432	0.738
6.41344	0.696
6.45256	0.69
6.49168	0.688
6.5308	0.68
6.56992	0.639
6.60903	0.655
6.64815	0.68
6.68727	0.579
6.72639	0.15
6.76551	0.05
6.80463	0.053
6.84375	0.058
6.88287	0.042
6.92199	0.076
6.96111	0.121
7.00022	0.219
7.03934	0.515
7.07846	0.662
7.11758	0.687
7.1567	0.563
7.19582	0.36
7.23494	0.602
7.27406	0.428
7.31318	0.301
7.35229	0.24
7.39141	0.531
7.43053	0.557
7.46965	0.461
7.50877	0.283
7.54789	0.273
7.58701	0.419
7.62613	0.4
7.66525	0.412
7.70436	0.474
7.74348	0.419
7.7826	0.358
7.82172	0.402
7.86084	0.457
7.89996	0.462
7.93908	0.33
7.9782	0.234
8.01732	0.242
8.05644	0.174
8.09555	0.077
8.13467	0.055
8.17379	0.05
8.21291	0.127
8.25203	0.244
8.29115	0.224
8.33027	0.131
8.36939	0.12
8.40851	0.103
8.44762	0.058
8.48674	0.045
8.52586	0.074
8.56498	0.127
8.6041	0.198
8.64322	0.261
8.68234	0.43
8.72146	0.472
8.76058	0.438
8.7997	0.369
8.83881	0.39
8.87793	0.494
8.91705	0.563
8.95617	0.612
8.99529	0.733
9.03441	0.801
9.07353	0.82
9.11265	0.825
9.15177	0.835
9.19088	0.836
9.23	0.828
9.26912	0.812
9.30824	0.784
9.34736	0.714
9.38648	0.622
9.4256	0.638
9.46472	0.749
9.50384	0.78
9.54295	0.814
9.58207	0.818
9.62119	0.807
9.66031	0.784
9.69943	0.719
9.73855	0.65
9.77767	0.728
9.81679	0.825
9.85591	0.861
9.89503	0.878
9.93414	0.882
9.97326	0.885
10.0124	0.904
10.0515	0.922
10.0906	0.939
10.1297	0.953
10.1689	0.963
10.208	0.958
10.2471	0.964
10.2862	0.961
10.3253	0.961
10.3645	0.957
10.4036	0.944
10.4427	0.936
10.4818	0.905
10.5209	0.882
10.56	0.846
10.5992	0.824
10.6383	0.769
10.6774	0.69
10.7165	0.677
10.7556	0.679
10.7948	0.595
10.8339	0.542
10.873	0.699
10.9121	0.791
10.9512	0.844
10.9904	0.867
11.0295	0.858
11.0686	0.786
11.1077	0.651
11.1468	0.635
11.186	0.685
11.2251	0.662
11.2642	0.629
11.3033	0.603
11.3424	0.635
11.3815	0.571
11.4207	0.283
11.4598	0.111
11.4989	0.136
11.538	0.22
11.5771	0.488
11.6163	0.689
11.6554	0.784
11.6945	0.84
11.7336	0.872
11.7727	0.903
11.8119	0.921
11.851	0.933
11.8901	0.947
11.9292	0.949
11.9683	0.961
12.0074	0.964
12.0466	0.963
12.0857	0.957
12.1248	0.958
12.1639	0.948
12.203	0.934
12.2422	0.922
12.2813	0.915
12.3204	0.91
12.3595	0.894
12.3986	0.851
12.4378	0.78
12.4769	0.635
12.516	0.396
12.5551	0.262
12.5942	0.215
12.6334	0.208
12.6725	0.296
12.7116	0.496
12.7507	0.563
12.7898	0.591
12.8289	0.598
12.8681	0.604
12.9072	0.571
12.9463	0.461
12.9854	0.446
13.0245	0.507
13.0637	0.553
13.1028	0.522
13.1419	0.401
13.181	0.319
13.2201	0.305
13.2593	0.336
13.2984	0.411
13.3375	0.45
13.3766	0.466
13.4157	0.528
13.4548	0.635
13.494	0.746
13.5331	0.812
13.5722	0.855
13.6113	0.888
13.6504	0.899
13.6896	0.912
13.7287	0.917
13.7678	0.921
13.8069	0.925
13.846	0.928
13.8852	0.928
13.9243	0.931
13.9634	0.932
14.0025	0.933
14.0416	0.934
14.0808	0.936
14.1199	0.937
14.159	0.933
14.1981	0.932
14.2372	0.936
14.2763	0.933
14.3155	0.932
14.3546	0.928
14.3937	0.928
14.4328	0.927
14.4719	0.919
14.5111	0.916
14.5502	0.911
14.5893	0.91
14.6284	0.903
14.6675	0.892
14.7067	0.889
14.7458	0.877
14.7849	0.873
14.824	0.88
14.8631	0.889
14.9022	0.893
14.9414	0.896
14.9805	0.895
15.0196	0.884
15.0587	0.883
15.0978	0.884
15.137	0.892
15.1761	0.889
15.2152	0.883
15.2543	0.877
15.2934	0.868
15.3326	0.856
15.3717	0.841
15.4108	0.839
15.4499	0.839
15.489	0.838
15.5282	0.835
15.5673	0.834
15.6064	0.825
15.6455	0.812
15.6846	0.813
15.7237	0.802
15.7629	0.79
15.802	0.784
15.8411	0.788
15.8802	0.788
15.9193	0.796
15.9585	0.802
