Infrared Spectrum: 2,6-Di-t-butyl-4-(dimethylamino)methylphenol
Formula: C 17 H 27 N O
CAS: 88-27-7
State: gas
Origin: EPA-IR VAPOR PHASE LIBRARY
1/CM	ABSORBANCE
551.7	0.00248
563.274	0.00248
574.848	0.00293
586.421	0.00212
597.995	0.00241
609.569	0.00332
621.143	0.00355
632.717	0.00349
644.291	0.00402
655.864	0.00331
667.438	0.00257
679.012	0.00193
690.586	0.00161
702.16	0.00175
713.734	0.00166
725.307	0.00185
736.881	0.0024
748.455	0.0033
760.029	0.00508
771.603	0.00591
783.177	0.00603
794.75	0.00633
806.324	0.005
817.898	0.00461
829.472	0.00876
841.046	0.0082
852.619	0.00406
864.193	0.00596
875.767	0.01454
887.341	0.01353
898.915	0.00663
910.489	0.00589
922.062	0.00553
933.636	0.00482
945.21	0.00426
956.784	0.00421
968.358	0.00371
979.932	0.00583
991.505	0.00541
1003.08	0.00634
1014.65	0.0114
1026.23	0.0199
1037.8	0.02253
1049.37	0.01384
1060.95	0.0069
1072.52	0.00568
1084.1	0.00573
1095.67	0.00812
1107.24	0.00951
1118.82	0.01593
1130.39	0.01221
1141.97	0.01664
1153.54	0.03025
1165.11	0.03908
1176.69	0.02993
1188.26	0.0262
1199.83	0.02817
1211.41	0.03084
1222.98	0.03524
1234.56	0.03753
1246.13	0.0389
1257.7	0.02848
1269.28	0.01745
1280.85	0.01205
1292.42	0.01205
1304	0.01654
1315.57	0.01715
1327.15	0.01137
1338.72	0.01226
1350.29	0.02226
1361.87	0.03925
1373.44	0.02888
1385.02	0.01574
1396.59	0.02444
1408.16	0.01866
1419.74	0.02631
1431.31	0.05239
1442.88	0.04792
1454.46	0.03182
1466.03	0.02685
1477.61	0.02323
1489.18	0.01648
1500.75	0.00756
1512.33	0.00459
1523.9	0.00325
1535.48	0.00256
1547.05	0.00219
1558.62	0.002
1570.2	0.00223
1581.77	0.00293
1593.34	0.00276
1604.92	0.00272
1616.49	0.00332
1628.07	0.00518
1639.64	0.00774
1651.21	0.00667
1662.79	0.00285
1674.36	0.00184
1685.93	0.00144
1697.51	0.00122
1709.08	0.00124
1720.66	0.00118
1732.23	0.00124
1743.8	0.00121
1755.38	0.00153
1766.95	0.00202
1778.53	0.00228
1790.1	0.00175
1801.67	0.00139
1813.25	0.00113
1824.82	0.00113
1836.39	0.00101
1847.97	0.0009238
1859.54	0.0008817
1871.12	0.0008699
1882.69	0.0007777
1894.26	0.0006805
1905.84	0.0006702
1917.41	0.0006633
1928.99	0.0006604
1940.56	0.0006219
1952.13	0.0005725
1963.71	0.0005883
1975.28	0.000622
1986.85	0.0006109
1998.43	0.0007953
2010	0.0009093
2021.58	0.0007747
2033.15	0.0006171
2044.72	0.000576
2056.3	0.0006134
2067.87	0.0006444
2079.44	0.0007669
2091.02	0.0007462
2102.59	0.0006205
2114.17	0.0006067
2125.74	0.0004935
2137.31	0.0004535
2148.89	0.0005116
2160.46	0.0005289
2172.04	0.0005623
2183.61	0.000615
2195.18	0.0005945
2206.76	0.0005396
2218.33	0.0005499
2229.9	0.0005958
2241.48	0.0005567
2253.05	0.0006
2264.63	0.0006044
2276.2	0.0006349
2287.77	0.0007257
2299.35	0.0007506
2310.92	0.0006701
2322.5	0.0006627
2334.07	0.0006489
2345.64	0.0006824
2357.22	0.0006527
2368.79	0.0007622
2380.36	0.00103
2391.94	0.00119
2403.51	0.00116
2415.09	0.00117
2426.66	0.00111
2438.23	0.00115
2449.81	0.00115
2461.38	0.00111
2472.96	0.00104
2484.53	0.00123
2496.1	0.00135
2507.68	0.00134
2519.25	0.00122
2530.82	0.00126
2542.4	0.00132
2553.97	0.00155
2565.55	0.00162
2577.12	0.00145
2588.69	0.0015
2600.27	0.00162
2611.84	0.0017
2623.41	0.00182
2634.99	0.00204
2646.56	0.00231
2658.14	0.00248
2669.71	0.00291
2681.28	0.00375
2692.86	0.00549
2704.43	0.00669
2716.01	0.00821
2727.58	0.01009
2739.15	0.01215
2750.73	0.01721
2762.3	0.03376
2773.87	0.06369
2785.45	0.04783
2797.02	0.02964
2808.6	0.02969
2820.17	0.03853
2831.74	0.0274
2843.32	0.02225
2854.89	0.02773
2866.47	0.03829
2878.04	0.05308
2889.61	0.05582
2901.19	0.05516
2912.76	0.06612
2924.33	0.07624
2935.91	0.07863
2947.48	0.1052
2959.06	0.1347
2970.63	0.14935
2982.2	0.08435
2993.78	0.03341
3005.35	0.02461
3016.92	0.01485
3028.5	0.00923
3040.07	0.00714
3051.65	0.00656
3063.22	0.00669
3074.79	0.00733
3086.37	0.00614
3097.94	0.00451
3109.52	0.00342
3121.09	0.00296
3132.66	0.00289
3144.24	0.00274
3155.81	0.00261
3167.38	0.00243
3178.96	0.00237
3190.53	0.00233
3202.11	0.00212
3213.68	0.00194
3225.25	0.00178
3236.83	0.00158
3248.4	0.0014
3259.98	0.00135
3271.55	0.00142
3283.12	0.0014
3294.7	0.00143
3306.27	0.00137
3317.84	0.00123
3329.42	0.00121
3340.99	0.000865
3352.57	0.00108
3364.14	0.00105
3375.71	0.00101
3387.29	0.00116
3398.86	0.00104
3410.43	0.00115
3422.01	0.00121
3433.58	0.00128
3445.16	0.00108
3456.73	0.0008757
3468.3	0.0008851
3479.88	0.0007973
3491.45	0.0008329
3503.03	0.0008782
3514.6	0.0008819
3526.17	0.0007796
3537.75	0.0008172
3549.32	0.00103
3560.89	0.0009241
3572.47	0.00108
3584.04	0.00122
3595.62	0.00154
3607.19	0.00211
3618.76	0.00306
3630.34	0.0048
3641.91	0.00983
3653.49	0.02613
3665.06	0.04813
3676.63	0.02988
3688.21	0.0123
3699.78	0.0056
3711.35	0.00328
3722.93	0.00239
3734.5	0.00175
3746.08	0.0015
3757.65	0.00121
3769.22	0.00122
3780.8	0.0009765
3792.37	0.00132
3803.94	0.00135
3815.52	0.00145
3827.09	0.00127
3838.67	0.00125
3850.24	0.0013
3861.81	0.00134
3873.39	0.0014
3884.96	0.00137
3896.54	0.00142
3908.11	0.00133
3919.68	0.00131
3931.26	0.00113
3942.83	0.00127
3954.4	0.00113
3965.98	0.00109
3977.55	0.00116
3989.13	0.00133
4000.7	0.00135
