Infrared Spectrum: 2-TERT-BUTYL-4-HYDROXY ANISOLE
Formula: C11 H16 O2
CAS: 88-32-4
State: LIQUID
Class: COBLENTZ
Instrument: Not specified, most likely a prism, grating, or hybrid spectrometer.
Sampling: TRANSMISSION
Path length: 0.0025 CM
Resolution: 4
Origin: INFRACORD
MICROMETERS	TRANSMITTANCE
2.535	0.881
2.57038	0.881
2.60575	0.881
2.64113	0.884
2.67651	0.883
2.71189	0.838
2.74726	0.718
2.78264	0.595
2.81802	0.493
2.8534	0.405
2.88877	0.32
2.92415	0.271
2.95953	0.263
2.9949	0.262
3.03028	0.291
3.06566	0.341
3.10104	0.404
3.13641	0.485
3.17179	0.562
3.20717	0.594
3.24255	0.599
3.27792	0.544
3.3133	0.354
3.34868	0.232
3.38406	0.274
3.41943	0.361
3.45481	0.448
3.49019	0.543
3.52556	0.698
3.56094	0.747
3.59632	0.769
3.6317	0.782
3.66707	0.786
3.70245	0.785
3.73783	0.784
3.77321	0.785
3.80858	0.788
3.84396	0.792
3.87934	0.792
3.91471	0.794
3.95009	0.799
3.98547	0.807
4.02085	0.81
4.05622	0.818
4.0916	0.832
4.12698	0.838
4.16236	0.845
4.19773	0.848
4.23311	0.854
4.26849	0.869
4.30386	0.871
4.33924	0.873
4.37462	0.873
4.41	0.873
4.44537	0.873
4.48075	0.873
4.51613	0.873
4.55151	0.873
4.58688	0.873
4.62226	0.873
4.65764	0.873
4.69301	0.871
4.72839	0.87
4.76377	0.873
4.79915	0.873
4.83452	0.862
4.8699	0.858
4.90528	0.857
4.94066	0.85
4.97603	0.849
5.01141	0.849
5.04679	0.849
5.08217	0.85
5.11754	0.862
5.15292	0.873
5.1883	0.874
5.22367	0.877
5.25905	0.877
5.29443	0.881
5.32981	0.881
5.36518	0.881
5.40056	0.879
5.43594	0.863
5.47132	0.857
5.50669	0.858
5.54207	0.87
5.57745	0.871
5.61282	0.871
5.6482	0.873
5.68358	0.873
5.71896	0.871
5.75433	0.858
5.78971	0.856
5.82509	0.855
5.86047	0.856
5.89584	0.86
5.93122	0.863
5.9666	0.864
6.00197	0.863
6.03735	0.863
6.07273	0.856
6.10811	0.843
6.14348	0.775
6.17886	0.634
6.21424	0.561
6.24962	0.513
6.28499	0.454
6.32037	0.659
6.35575	0.762
6.39113	0.788
6.4265	0.801
6.46188	0.804
6.49726	0.803
6.53263	0.763
6.56801	0.701
6.60339	0.542
6.63877	0.218
6.67414	0.136
6.70952	0.168
6.7449	0.245
6.78028	0.287
6.81565	0.259
6.85103	0.239
6.88641	0.213
6.92178	0.239
6.95716	0.25
6.99254	0.238
7.02792	0.365
7.06329	0.525
7.09867	0.632
7.13405	0.683
7.16943	0.625
7.2048	0.575
7.24018	0.69
7.27556	0.696
7.31093	0.575
7.34631	0.387
7.38169	0.463
7.41707	0.518
7.45244	0.519
7.48782	0.502
7.5232	0.478
7.55858	0.465
7.59395	0.462
7.62933	0.476
7.66471	0.512
7.70008	0.523
7.73546	0.378
7.77084	0.27
7.80622	0.295
7.84159	0.366
7.87697	0.398
7.91235	0.425
7.94773	0.422
7.9831	0.385
8.01848	0.298
8.05386	0.232
8.08924	0.177
8.12461	0.158
8.15999	0.151
8.19537	0.122
8.23074	0.088
8.26612	0.084
8.3015	0.115
8.33688	0.172
8.37225	0.253
8.40763	0.304
8.44301	0.298
8.47839	0.263
8.51376	0.339
8.54914	0.438
8.58452	0.534
8.61989	0.597
8.65527	0.607
8.69065	0.602
8.72603	0.57
8.7614	0.556
8.79678	0.59
8.83216	0.677
8.86754	0.731
8.90291	0.761
8.93829	0.767
8.97367	0.773
9.00904	0.773
9.04442	0.759
9.0798	0.699
9.11518	0.589
9.15055	0.397
9.18593	0.321
9.22131	0.427
9.25669	0.604
9.29206	0.734
9.32744	0.775
9.36282	0.788
9.3982	0.794
9.43357	0.795
9.46895	0.793
9.50433	0.767
9.5397	0.711
9.57508	0.586
9.61046	0.406
9.64584	0.256
9.68121	0.239
9.71659	0.282
9.75197	0.366
9.78735	0.451
9.82272	0.567
9.8581	0.631
9.89348	0.647
9.92885	0.666
9.96423	0.682
9.99961	0.716
10.035	0.76
10.0704	0.791
10.1057	0.813
10.1411	0.835
10.1765	0.843
10.2119	0.845
10.2473	0.849
10.2826	0.85
10.318	0.851
10.3534	0.851
10.3888	0.85
10.4241	0.85
10.4595	0.844
10.4949	0.827
10.5303	0.793
10.5656	0.741
10.601	0.646
10.6364	0.5
10.6718	0.376
10.7072	0.334
10.7425	0.37
10.7779	0.497
10.8133	0.626
10.8487	0.708
10.884	0.76
10.9194	0.792
10.9548	0.813
10.9902	0.832
11.0256	0.842
11.0609	0.848
11.0963	0.849
11.1317	0.85
11.1671	0.85
11.2024	0.842
11.2378	0.811
11.2732	0.759
11.3086	0.691
11.3439	0.616
11.3793	0.562
11.4147	0.525
11.4501	0.513
11.4855	0.505
11.5208	0.507
11.5562	0.564
11.5916	0.653
11.627	0.735
11.6623	0.779
11.6977	0.816
11.7331	0.841
11.7685	0.843
11.8039	0.845
11.8392	0.845
11.8746	0.845
11.91	0.845
11.9454	0.839
11.9807	0.819
12.0161	0.791
12.0515	0.753
12.0869	0.706
12.1222	0.638
12.1576	0.574
12.193	0.519
12.2284	0.466
12.2638	0.418
12.2991	0.367
12.3345	0.345
12.3699	0.332
12.4053	0.334
12.4406	0.38
12.476	0.448
12.5114	0.565
12.5468	0.648
12.5822	0.706
12.6175	0.749
12.6529	0.761
12.6883	0.774
12.7237	0.78
12.759	0.781
12.7944	0.784
12.8298	0.784
12.8652	0.784
12.9005	0.784
12.9359	0.78
12.9713	0.773
13.0067	0.756
13.0421	0.741
13.0774	0.717
13.1128	0.677
13.1482	0.629
13.1836	0.578
13.2189	0.506
13.2543	0.425
13.2897	0.349
13.3251	0.275
13.3605	0.255
13.3958	0.265
13.4312	0.364
13.4666	0.436
13.502	0.48
13.5373	0.508
13.5727	0.545
13.6081	0.594
13.6435	0.646
13.6788	0.684
13.7142	0.709
13.7496	0.727
13.785	0.739
13.8204	0.746
13.8557	0.752
13.8911	0.753
13.9265	0.753
13.9619	0.753
13.9972	0.753
14.0326	0.753
14.068	0.753
14.1034	0.753
14.1388	0.753
14.1741	0.753
14.2095	0.75
14.2449	0.743
14.2803	0.739
14.3156	0.722
14.351	0.696
14.3864	0.669
14.4218	0.661
14.4571	0.661
14.4925	0.67
14.5279	0.691
14.5633	0.708
14.5987	0.718
14.634	0.724
14.6694	0.729
14.7048	0.73
14.7402	0.734
14.7755	0.734
14.8109	0.734
14.8463	0.734
14.8817	0.734
14.9171	0.734
14.9524	0.734
14.9878	0.734
