Infrared Spectrum: Benzenesulfonic acid, 2-amino-5-chloro-4-ethyl-
Formula: C8 H10 Cl N O3 S
CAS: 88-56-2
State: SOLID (SPLIT MULL), FLUOROLUBE FOR 3800-1330 CM^-^1, NUJOL FOR 1330-400 CM^-^1
Class: COBLENTZ III
Instrument: DOW KBr FOREPRISM-GRATING
Instrument parameters: BLAZED AT 3.5, 12.0, 20.0 MICRON AND CHANGED AT 5.0, 7.5, 14.9 MICRON
Sampling: TRANSMISSION
Resolution: 2
Origin: DOW CHEMICAL COMPANY
1/CM	TRANSMITTANCE
381	0.8468
390	0.8333
399	0.8309
408	0.8699
417	0.8693
426	0.853
435	0.8216
444	0.8343
453	0.8025
462	0.5239
471	0.8475
480	0.8693
489	0.8678
498	0.8562
507	0.8266
516	0.7984
525	0.7526
534	0.617
543	0.4885
552	0.7676
561	0.6839
570	0.6089
579	0.3766
588	0.6551
597	0.8015
606	0.8061
615	0.7815
624	0.6818
633	0.2988
642	0.1907
651	0.6518
660	0.8312
669	0.8667
678	0.8665
687	0.849
696	0.8121
705	0.6755
714	0.5668
723	0.526
732	0.6086
741	0.4831
750	0.7786
759	0.8121
768	0.8111
777	0.8011
786	0.8006
795	0.6799
804	0.8099
813	0.8205
822	0.8268
831	0.8244
840	0.8178
849	0.8144
858	0.8117
867	0.8024
876	0.7714
885	0.6508
894	0.6768
903	0.7499
912	0.7761
921	0.7444
930	0.6818
939	0.7685
948	0.7787
957	0.7728
966	0.7668
975	0.7608
984	0.7492
993	0.6356
1002	0.6667
1011	0.6751
1020	0.6412
1029	0.4116
1038	0.2541
1047	0.3146
1056	0.235
1065	0.5831
1074	0.4856
1083	0.5253
1092	0.5276
1101	0.4526
1110	0.2545
1119	0.1135
1128	0.371
1137	0.3882
1146	0.599
1155	0.5784
1164	0.4591
1173	0.4075
1182	0.2459
1191	0.195
1200	0.1261
1209	0.0552
1218	0.1853
1227	0.0846
1236	0.041
1245	0.1969
1254	0.3548
1263	0.4409
1272	0.5672
1281	0.6461
1290	0.6921
1299	0.6868
1308	0.6105
1317	0.6638
1326	0.7408
1335	0.6746
1344	0.6446
1353	0.6953
1362	0.6924
1371	0.5809
1380	0.6038
1389	0.3706
1398	0.6628
1407	0.7387
1416	0.738
1425	0.7095
1434	0.658
1443	0.6053
1452	0.5192
1461	0.369
1470	0.3644
1479	0.1461
1488	0.5531
1497	0.3646
1506	0.2066
1515	0.544
1524	0.5406
1533	0.5178
1542	0.523
1551	0.5071
1560	0.4312
1569	0.4558
1578	0.5923
1587	0.5466
1596	0.5029
1605	0.6237
1614	0.7383
1623	0.7547
1632	0.7754
1641	0.7924
1650	0.7851
1659	0.8122
1668	0.8088
1677	0.8098
1686	0.8072
1695	0.8035
1704	0.7995
1713	0.7942
1722	0.7958
1731	0.7832
1740	0.7768
1749	0.7546
1758	0.7285
1767	0.7619
1776	0.7655
1785	0.764
1794	0.7634
1803	0.763
1812	0.7575
1821	0.7526
1830	0.7475
1839	0.7421
1848	0.7365
1857	0.7311
1866	0.7255
1875	0.7197
1884	0.7137
1893	0.7075
1902	0.7011
1911	0.6933
1920	0.6845
1929	0.6749
1938	0.663
1947	0.6515
1956	0.6447
1965	0.6407
1974	0.6422
1983	0.6468
1992	0.6446
2001	0.661
2010	0.6957
2019	0.6972
2028	0.6992
2037	0.7008
2046	0.7014
2055	0.7
2064	0.6947
2073	0.6884
2082	0.6883
2091	0.6869
2100	0.6818
2109	0.6757
2118	0.6693
2127	0.664
2136	0.6596
2145	0.6553
2154	0.6504
2163	0.6448
2172	0.6378
2181	0.6312
2190	0.6249
2199	0.6183
2208	0.6112
2217	0.604
2226	0.5968
2235	0.5883
2244	0.5791
2253	0.5704
2262	0.5637
2271	0.5595
2280	0.5579
2289	0.5562
2298	0.5525
2307	0.5473
2316	0.5417
2325	0.535
2334	0.5279
2343	0.5209
2352	0.5154
2361	0.5107
2370	0.5089
2379	0.5088
2388	0.5087
2397	0.5058
2406	0.5014
2415	0.4962
2424	0.4905
2433	0.484
2442	0.4772
2451	0.4702
2460	0.4628
2469	0.455
2478	0.4467
2487	0.4382
2496	0.4298
2505	0.4212
2514	0.4087
2523	0.3944
2532	0.3782
2541	0.364
2550	0.3516
2559	0.3392
2568	0.3252
2577	0.3053
2586	0.2878
2595	0.27
2604	0.2653
2613	0.2674
2622	0.2787
2631	0.2972
2640	0.3122
2649	0.3115
2658	0.3056
2667	0.2992
2676	0.2931
2685	0.2883
2694	0.2852
2703	0.2828
2712	0.2804
2721	0.2761
2730	0.2712
2739	0.2653
2748	0.2581
2757	0.2498
2766	0.2404
2775	0.2293
2784	0.2174
2793	0.2027
2802	0.1852
2811	0.1687
2820	0.1528
2829	0.1373
2838	0.1212
2847	0.1036
2856	0.0875
2865	0.0701
2874	0.0567
2883	0.0571
2892	0.0591
2901	0.0618
2910	0.0645
2919	0.0672
2928	0.0675
2937	0.0662
2946	0.0769
2955	0.088
2964	0.0762
2973	0.0631
2982	0.0837
2991	0.1392
3000	0.1527
3009	0.1548
3018	0.1594
3027	0.1744
3036	0.1965
3045	0.2074
3054	0.2288
3063	0.2414
3072	0.2399
3081	0.2352
3090	0.2296
3099	0.2216
3108	0.2049
3117	0.1906
3126	0.1757
3135	0.1696
3144	0.1769
3153	0.2109
3162	0.2629
3171	0.2916
3180	0.3334
3189	0.3623
3198	0.3843
3207	0.4059
3216	0.4262
3225	0.4441
3234	0.4599
3243	0.4724
3252	0.4785
3261	0.4821
3270	0.4824
3279	0.4815
3288	0.48
3297	0.4777
3306	0.4745
3315	0.4704
3324	0.4659
3333	0.4607
3342	0.4555
3351	0.4498
3360	0.4439
3369	0.4379
3378	0.4321
3387	0.4271
3396	0.4222
3405	0.4172
3414	0.412
3423	0.4068
3432	0.402
3441	0.398
3450	0.3943
3459	0.3914
3468	0.3892
3477	0.3879
3486	0.3872
3495	0.3864
3504	0.387
3513	0.388
3522	0.3891
3531	0.39
3540	0.3912
3549	0.3932
3558	0.3953
3567	0.3974
3576	0.4
3585	0.4023
3594	0.4041
3603	0.4059
3612	0.4068
3621	0.4072
3630	0.4075
3639	0.406
3648	0.4047
3657	0.4022
3666	0.3998
3675	0.397
3684	0.394
3693	0.3909
3702	0.3879
3711	0.3846
3720	0.3812
3729	0.378
3738	0.3754
3747	0.3729
3756	0.3709
3765	0.3697
3774	0.3684
