Infrared Spectrum: BENZENESULFONIC ACID, 4-CHLORO-3-(3-METHYL-5-OXO-2-PYRAZOLIN-1-YL)-
Formula: C10 H9 Cl N2 O4 S
CAS: 88-76-6
State: SOLID (SPLIT MULL), FLUOROLUBE FOR 3800-1330 CM^-^1, NUJOL FOR 1330-400 CM^-^1
Class: COBLENTZ III
Instrument: DOW KBr FOREPRISM-GRATING
Instrument parameters: BLAZED AT 3.5, 12.0, 20.0 MICRON AND CHANGED AT 5.0, 7.5, 14.9 MICRON
Sampling: TRANSMISSION
Resolution: 2
Origin: DOW CHEMICAL COMPANY
1/CM	TRANSMITTANCE
447	0.6878
456	0.7208
465	0.8475
474	0.8586
483	0.8591
492	0.8514
501	0.8361
510	0.7585
519	0.7193
528	0.6971
537	0.5476
546	0.7365
555	0.7368
564	0.7014
573	0.69
582	0.7167
591	0.7004
600	0.685
609	0.7811
618	0.764
627	0.7135
636	0.7021
645	0.5122
654	0.4128
663	0.6964
672	0.5442
681	0.746
690	0.7525
699	0.8491
708	0.811
717	0.546
726	0.744
735	0.7096
744	0.7428
753	0.8065
762	0.7751
771	0.4981
780	0.8148
789	0.6747
798	0.5607
807	0.7965
816	0.8337
825	0.7307
834	0.7575
843	0.5482
852	0.8356
861	0.8559
870	0.8549
879	0.8423
888	0.8294
897	0.8149
906	0.764
915	0.7876
924	0.7854
933	0.7633
942	0.7262
951	0.6807
960	0.626
969	0.5906
978	0.5679
987	0.5658
996	0.5481
1005	0.2008
1014	0.2983
1023	0.5701
1032	0.1919
1041	0.6352
1050	0.731
1059	0.7293
1068	0.689
1077	0.498
1086	0.5564
1095	0.5434
1104	0.2772
1113	0.3454
1122	0.5707
1131	0.5135
1140	0.3131
1149	0.144
1158	0.0652
1167	0.1011
1176	0.3138
1185	0.4939
1194	0.5399
1203	0.4136
1212	0.559
1221	0.5903
1230	0.4351
1239	0.1744
1248	0.5159
1257	0.1773
1266	0.3757
1275	0.5344
1284	0.675
1293	0.7184
1302	0.7061
1311	0.5955
1320	0.6895
1329	0.6999
1338	0.6825
1347	0.5947
1356	0.656
1365	0.6458
1374	0.6158
1383	0.531
1392	0.4906
1401	0.551
1410	0.4909
1419	0.4716
1428	0.5373
1437	0.6043
1446	0.6239
1455	0.59
1464	0.5369
1473	0.526
1482	0.4625
1491	0.5617
1500	0.6118
1509	0.5859
1518	0.5408
1527	0.4786
1536	0.3212
1545	0.1423
1554	0.1035
1563	0.3329
1572	0.4541
1581	0.5329
1590	0.3828
1599	0.2328
1608	0.5162
1617	0.7324
1626	0.7753
1635	0.7834
1644	0.7924
1653	0.7968
1662	0.7882
1671	0.8126
1680	0.8139
1689	0.8118
1698	0.8084
1707	0.8058
1716	0.795
1725	0.7951
1734	0.7898
1743	0.7791
1752	0.7664
1761	0.7543
1770	0.7435
1779	0.733
1788	0.7211
1797	0.7057
1806	0.6951
1815	0.6721
1824	0.6601
1833	0.6486
1842	0.6353
1851	0.6217
1860	0.6093
1869	0.6083
1878	0.6099
1887	0.6187
1896	0.6297
1905	0.6412
1914	0.651
1923	0.6621
1932	0.6596
1941	0.6811
1950	0.6897
1959	0.6967
1968	0.7036
1977	0.7103
1986	0.7155
1995	0.7231
2004	0.7496
2013	0.7526
2022	0.7524
2031	0.7517
2040	0.7504
2049	0.7467
2058	0.7418
2067	0.7368
2076	0.7311
2085	0.7246
2094	0.7167
2103	0.7067
2112	0.6971
2121	0.6858
2130	0.6739
2139	0.6612
2148	0.6504
2157	0.6388
2166	0.6262
2175	0.6118
2184	0.5987
2193	0.5885
2202	0.5782
2211	0.5676
2220	0.5579
2229	0.5501
2238	0.5425
2247	0.5354
2256	0.5283
2265	0.5228
2274	0.5176
2283	0.5127
2292	0.5083
2301	0.5049
2310	0.502
2319	0.5002
2328	0.4999
2337	0.5004
2346	0.501
2355	0.5019
2364	0.501
2373	0.4978
2382	0.4921
2391	0.4871
2400	0.4879
2409	0.484
2418	0.4783
2427	0.4741
2436	0.4716
2445	0.4706
2454	0.4685
2463	0.4655
2472	0.4683
2481	0.4684
2490	0.4662
2499	0.4655
2508	0.4647
2517	0.4623
2526	0.4638
2535	0.4696
2544	0.4758
2553	0.4777
2562	0.4775
2571	0.4757
2580	0.4719
2589	0.4671
2598	0.4619
2607	0.4564
2616	0.4453
2625	0.4462
2634	0.4569
2643	0.4552
2652	0.4521
2661	0.4464
2670	0.4399
2679	0.4404
2688	0.4282
2697	0.417
2706	0.4281
2715	0.421
2724	0.4088
2733	0.3938
2742	0.3821
2751	0.3768
2760	0.3873
2769	0.3834
2778	0.3758
2787	0.3659
2796	0.3579
2805	0.3449
2814	0.3405
2823	0.3525
2832	0.3737
2841	0.3856
2850	0.3895
2859	0.4285
2868	0.4351
2877	0.4258
2886	0.4189
2895	0.4297
2904	0.4374
2913	0.4245
2922	0.4034
2931	0.413
2940	0.4275
2949	0.4374
2958	0.4441
2967	0.4574
2976	0.4708
2985	0.477
2994	0.4749
3003	0.4778
3012	0.4828
3021	0.4828
3030	0.4859
3039	0.49
3048	0.489
3057	0.4798
3066	0.5066
3075	0.5331
3084	0.5453
3093	0.5464
3102	0.5366
3111	0.5106
3120	0.427
3129	0.4796
3138	0.5147
3147	0.5171
3156	0.5187
3165	0.5193
3174	0.5162
3183	0.5074
3192	0.496
3201	0.487
3210	0.4788
3219	0.4734
3228	0.4737
3237	0.4729
3246	0.4682
3255	0.4525
3264	0.4334
3273	0.4064
3282	0.3854
3291	0.3646
3300	0.3604
3309	0.368
3318	0.3808
3327	0.3918
3336	0.4002
3345	0.405
3354	0.406
3363	0.4022
3372	0.3962
3381	0.3876
3390	0.3784
3399	0.3768
3408	0.3848
3417	0.4014
3426	0.4251
3435	0.446
3444	0.4609
3453	0.4768
3462	0.4959
3471	0.5234
3480	0.553
3489	0.5689
3498	0.5853
3507	0.6006
3516	0.6171
3525	0.6326
3534	0.6435
3543	0.6518
3552	0.6603
3561	0.6698
3570	0.6786
3579	0.6871
3588	0.6944
3597	0.7015
3606	0.7086
3615	0.7139
3624	0.718
3633	0.7284
3642	0.7301
3651	0.7371
3660	0.735
3669	0.7303
3678	0.7339
3687	0.7314
3696	0.7285
3705	0.7264
3714	0.7257
3723	0.7247
3732	0.7233
3741	0.721
3750	0.7185
3759	0.715
3768	0.7156
