Infrared Spectrum: 2-Nitroaniline
Formula: C 6 H 6 N 2 O 2
CAS: 88-74-4
State: gas
Instrument: HP-GC/MS/IRD
Origin: NIST Mass Spectrometry Data Center
1/CM	ABSORBANCE
550	0.0019425
562	0.0019005
574	0.0014455
586	0.0013825
598	0.00112
610	0.000833
622	0.000819
634	0.0010885
646	0.001519
658	0.0024675
670	0.003563
682	0.0036505
694	0.0033915
706	0.0025025
718	0.002961
730	0.0071155
742	0.0132265
754	0.00672
766	0.0030275
778	0.002303
790	0.001659
802	0.00168
814	0.002156
826	0.001897
838	0.001673
850	0.002086
862	0.0044975
874	0.0046795
886	0.0015365
898	0.000595
910	0.000413
922	0.000294
934	0.0002835
946	0.0002975
958	0.0001505
970	9.1e-05
982	3.85e-05
994	9.8e-05
1006	0.000301
1018	0.0008155
1030	0.000882
1042	0.0005075
1054	0.0005775
1066	0.000574
1078	0.00021
1090	0.0003255
1102	0.0011025
1114	0.0011655
1126	0.000504
1138	0.000826
1150	0.0032795
1162	0.005775
1174	0.0036855
1186	0.0005425
1198	0.000161
1210	0.000329
1222	0.0007105
1234	0.0019425
1246	0.006132
1258	0.0128205
1270	0.011711
1282	0.0063455
1294	0.0075005
1306	0.0060235
1318	0.0042245
1330	0.011298
1342	0.024885
1354	0.0217525
1366	0.0051695
1378	0.002051
1390	0.001386
1402	0.001036
1414	0.000868
1426	0.0011235
1438	0.0028595
1450	0.0045115
1462	0.0040215
1474	0.004515
1486	0.005474
1498	0.0084665
1510	0.0224315
1522	0.035
1534	0.026138
1546	0.0092085
1558	0.006475
1570	0.009093
1582	0.010374
1594	0.0080605
1606	0.012635
1618	0.0257705
1630	0.0264565
1642	0.0121415
1654	0.0037555
1666	0.001694
1678	0.001078
1690	0.0008155
1702	0.0005285
1714	0.0004025
1726	0.000343
1738	0.0002205
1750	0.000105
1762	0.0001085
1774	0.0002065
1786	0.0003325
1798	0.000301
1810	0.0002135
1822	0.0001365
1834	5.6e-05
1846	1.05e-05
1858	3.15e-05
1870	4.55e-05
1882	0.000119
1894	0.000231
1906	0.000371
1918	0.0003675
1930	0.000371
1942	0.000252
1954	4.2e-05
1966	7e-06
1978	2.1e-05
1990	1.75e-05
2002	4.55e-05
2014	4.9e-05
2026	4.55e-05
2038	4.9e-05
2050	2.45e-05
2062	2.8e-05
2074	4.55e-05
2086	5.6e-05
2098	3.5e-05
2110	7.7e-05
2122	8.75e-05
2134	9.45e-05
2146	0.0001295
2158	9.8e-05
2170	0.0001225
2182	0.000112
2194	0.0001295
2206	0.0001295
2218	0.000112
2230	9.8e-05
2242	7.35e-05
2254	5.6e-05
2266	7.7e-05
2278	7.7e-05
2290	9.8e-05
2302	0.0001015
2314	0.0001505
2326	0.0001785
2338	0.000182
2350	0.0001925
2362	0.000238
2374	0.000231
2386	0.0001855
2398	0.0001925
2410	0.000168
2422	0.0001715
2434	0.0002275
2446	0.0003185
2458	0.000231
2470	0.0001785
2482	8.05e-05
2494	9.1e-05
2506	0.000105
2518	5.95e-05
2530	4.55e-05
2542	9.1e-05
2554	9.1e-05
2566	0.000133
2578	0.000112
2590	0.000161
2602	0.0001645
2614	0.0001995
2626	0.00021
2638	0.00021
2650	0.0001435
2662	0.000119
2674	0.000196
2686	0.000217
2698	0.000189
2710	0.0001575
2722	0.000126
2734	0.000119
2746	0.000112
2758	0.0001505
2770	0.000273
2782	0.0003185
2794	0.0003185
2806	0.000294
2818	0.000266
2830	0.000301
2842	0.0003395
2854	0.000413
2866	0.000469
2878	0.0004305
2890	0.0003465
2902	0.0002975
2914	0.000273
2926	0.000315
2938	0.000287
2950	0.000294
2962	0.0002765
2974	0.0002275
2986	0.0001715
2998	0.0002275
3010	0.000329
3022	0.0005495
3034	0.001078
3046	0.0015505
3058	0.002156
3070	0.0024955
3082	0.0023205
3094	0.001673
3106	0.0005425
3118	0.000259
3130	0.000168
3142	0.000154
3154	0.0001435
3166	0.000154
3178	0.000154
3190	0.0001575
3202	0.000147
3214	0.000147
3226	9.8e-05
3238	0.0001295
3250	0.0001015
3262	8.05e-05
3274	0.0001155
3286	0.0001015
3298	8.05e-05
3310	8.4e-05
3322	7.35e-05
3334	0.000126
3346	0.0001785
3358	0.0001855
3370	0.000462
3382	0.001197
3394	0.003682
3406	0.007028
3418	0.005964
3430	0.002149
3442	0.000721
3454	0.00049
3466	0.0005775
3478	0.000833
3490	0.0013825
3502	0.0024465
3514	0.0041965
3526	0.0054635
3538	0.004235
3550	0.001946
3562	0.000714
3574	0.0002905
3586	0.0002415
3598	0.0002065
3610	0.000161
3622	0.0001435
3634	0.000126
3646	0.000147
3658	8.4e-05
3670	6.3e-05
3682	8.4e-05
3694	0.0001645
3706	0.0001295
3718	7e-05
3730	8.4e-05
3742	0.000147
3754	0.00014
3766	9.45e-05
3778	0.000112
3790	0.0001225
3802	0.0001715
3814	0.0001645
3826	0.0001225
3838	9.1e-05
