Infrared Spectrum: Phthalamide
Formula: C8 H8 N2 O2
CAS: 88-96-0
State: SOLID (1 mg / 300 mg KBr DISC)
Melting point: 235 C
Class: COBLENTZ III
Instrument: PERKIN-ELMER 180 (GRATING)
Instrument parameters: GRATINGS: 2000, 1000, 500, 250 CM^-^1; FILTER CHANGE: 2970, 2000, 1485, 1000, 743, 500, 372, 250, 186 CM^-^1.
Sampling: TRANSMISSION
Path length: SCALE ATTENUATION REDUCED 12%
Resolution: 2
Origin: K. K. DEB-NCI FREDERICK CANCER RESEARCH CENTER
1/CM	TRANSMITTANCE
374	0.8523
383	0.8685
392	0.8017
401	0.7153
410	0.8718
419	0.8844
428	0.8919
437	0.8921
446	0.8901
455	0.8866
464	0.8827
473	0.8783
482	0.8735
491	0.8684
500	0.8594
509	0.8457
518	0.8392
527	0.8279
536	0.8116
545	0.7919
554	0.7626
563	0.6541
572	0.5579
581	0.7038
590	0.6637
599	0.6071
608	0.539
617	0.4653
626	0.3494
635	0.2049
644	0.3431
653	0.3758
662	0.4112
671	0.413
680	0.3793
689	0.3969
698	0.3769
707	0.3318
716	0.41
725	0.4883
734	0.5666
743	0.6481
752	0.6648
761	0.7117
770	0.7202
779	0.6335
788	0.4516
797	0.6122
806	0.5413
815	0.6381
824	0.7279
833	0.7427
842	0.7909
851	0.8276
860	0.8454
869	0.854
878	0.858
887	0.8532
896	0.8492
905	0.8623
914	0.8633
923	0.862
932	0.8603
941	0.8581
950	0.8521
959	0.7521
968	0.8459
977	0.8516
986	0.8447
995	0.833
1004	0.8269
1013	0.8304
1022	0.8268
1031	0.8008
1040	0.8142
1049	0.826
1058	0.8214
1067	0.8145
1076	0.7687
1085	0.8044
1094	0.8043
1103	0.7977
1112	0.7874
1121	0.7528
1130	0.5744
1139	0.5467
1148	0.6499
1157	0.6952
1166	0.7612
1175	0.7684
1184	0.7613
1193	0.7527
1202	0.744
1211	0.7348
1220	0.7242
1229	0.7117
1238	0.6974
1247	0.6804
1256	0.6623
1265	0.6176
1274	0.648
1283	0.6214
1292	0.595
1301	0.5955
1310	0.5861
1319	0.5737
1328	0.5606
1337	0.5446
1346	0.5278
1355	0.5079
1364	0.468
1373	0.4253
1382	0.3647
1391	0.2792
1400	0.2037
1409	0.1656
1418	0.3031
1427	0.4683
1436	0.543
1445	0.3694
1454	0.5805
1463	0.6041
1472	0.6126
1481	0.6036
1490	0.5585
1499	0.4967
1508	0.5679
1517	0.5712
1526	0.5538
1535	0.5166
1544	0.4806
1553	0.4333
1562	0.3373
1571	0.2413
1580	0.2356
1589	0.1748
1598	0.222
1607	0.2435
1616	0.2158
1625	0.2136
1634	0.2151
1643	0.1892
1652	0.1652
1661	0.1463
1670	0.1745
1679	0.1999
1688	0.2913
1697	0.4432
1706	0.5286
1715	0.586
1724	0.6298
1733	0.6752
1742	0.7001
1751	0.7168
1760	0.7252
1769	0.7342
1778	0.7555
1787	0.771
1796	0.7837
1805	0.7931
1814	0.8008
1823	0.8081
1832	0.81
1841	0.8014
1850	0.7809
1859	0.8108
1868	0.8162
1877	0.8127
1886	0.8083
1895	0.811
1904	0.8173
1913	0.8145
1922	0.8135
1931	0.8167
1940	0.8123
1949	0.8031
1958	0.7921
1967	0.8053
1976	0.8121
1985	0.8055
1994	0.7937
2003	0.8042
2012	0.8078
2021	0.8072
2030	0.8064
2039	0.806
2048	0.805
2057	0.804
2066	0.803
2075	0.802
2084	0.801
2093	0.7998
2102	0.7986
2111	0.7974
2120	0.7958
2129	0.794
2138	0.7922
2147	0.7904
2156	0.7889
2165	0.7875
2174	0.7858
2183	0.7837
2192	0.7817
2201	0.7795
2210	0.777
2219	0.7744
2228	0.7719
2237	0.7704
2246	0.7689
2255	0.7633
2264	0.7543
2273	0.7471
2282	0.7467
2291	0.7493
2300	0.752
2309	0.7549
2318	0.7574
2327	0.759
2336	0.7593
2345	0.7579
2354	0.7561
2363	0.7542
2372	0.7522
2381	0.7503
2390	0.7483
2399	0.7463
2408	0.7446
2417	0.7431
2426	0.7426
2435	0.7444
2444	0.7453
2453	0.7431
2462	0.7403
2471	0.7371
2480	0.7338
2489	0.7323
2498	0.7323
2507	0.7296
2516	0.7259
2525	0.7221
2534	0.7185
2543	0.7161
2552	0.7158
2561	0.7159
2570	0.7148
2579	0.7122
2588	0.711
2597	0.711
2606	0.7107
2615	0.7093
2624	0.7066
2633	0.7032
2642	0.6996
2651	0.6957
2660	0.6918
2669	0.6875
2678	0.6826
2687	0.6764
2696	0.6702
2705	0.6643
2714	0.6588
2723	0.6528
2732	0.6455
2741	0.6379
2750	0.6288
2759	0.6192
2768	0.5996
2777	0.5735
2786	0.5448
2795	0.5544
2804	0.574
2813	0.594
2822	0.6219
2831	0.6266
2840	0.6229
2849	0.6181
2858	0.615
2867	0.6144
2876	0.609
2885	0.6005
2894	0.5909
2903	0.5819
2912	0.5738
2921	0.5668
2930	0.5648
2939	0.5621
2948	0.5576
2957	0.551
2966	0.5428
2975	0.5333
2984	0.5188
2993	0.5046
3002	0.4908
3011	0.4775
3020	0.4617
3029	0.4431
3038	0.4258
3047	0.4081
3056	0.3901
3065	0.374
3074	0.3587
3083	0.3444
3092	0.3224
3101	0.3017
3110	0.2741
3119	0.2485
3128	0.2239
3137	0.2025
3146	0.1928
3155	0.1923
3164	0.1968
3173	0.2105
3182	0.2317
3191	0.249
3200	0.2646
3209	0.2764
3218	0.2843
3227	0.2868
3236	0.2866
3245	0.2833
3254	0.2751
3263	0.2633
3272	0.2484
3281	0.2361
3290	0.2238
3299	0.211
3308	0.2026
3317	0.2008
3326	0.2029
3335	0.2084
3344	0.2191
3353	0.2318
3362	0.2562
3371	0.297
3380	0.3378
3389	0.3786
3398	0.4269
3407	0.4876
3416	0.5066
3425	0.5215
3434	0.5365
3443	0.5573
3452	0.5753
3461	0.5892
3470	0.6005
3479	0.6093
3488	0.6169
3497	0.6231
3506	0.629
3515	0.6341
3524	0.6389
3533	0.6431
3542	0.6468
3551	0.6503
3560	0.6531
3569	0.6559
3578	0.6582
3587	0.6597
3596	0.6612
3605	0.6627
3614	0.6633
3623	0.6638
3632	0.6643
3641	0.6644
3650	0.6644
3659	0.6641
3668	0.6633
3677	0.6625
3686	0.6617
3695	0.6612
3704	0.6615
3713	0.6617
3722	0.6617
3731	0.6615
3740	0.661
3749	0.6599
3758	0.6602
3767	0.6581
3776	0.6574
3785	0.6567
