Infrared Spectrum: 1-Acetamidoadamantane
Formula: C 12 H 19 N O
CAS: 880-52-4
State: gas
Origin: EPA-IR VAPOR PHASE LIBRARY
1/CM	ABSORBANCE
549.9	0.01216
559.547	0.00382
569.193	0.0018655
578.84	0.00166863
588.486	0.001364
598.133	0.001132
607.779	0.001041
617.426	0.001173
627.072	0.001001
636.719	0.00087
646.365	0.000789
656.012	0.000822
665.658	0.000951
675.305	0.000769
684.951	0.000599
694.598	0.000609
704.245	0.000627
713.891	0.000666
723.538	0.000644
733.184	0.000662
742.831	0.000667
752.477	0.000637
762.124	0.000672
771.77	0.000686
781.417	0.000844
791.063	0.001103
800.71	0.00166703
810.356	0.00277
820.003	0.00301
829.649	0.00358
839.296	0.00474
848.943	0.00629
858.589	0.00655
868.236	0.00533
877.882	0.00392
887.529	0.0024544
897.175	0.001802
906.822	0.0023457
916.468	0.0032
926.115	0.00409
935.761	0.00436
945.408	0.00435
955.054	0.00598
964.701	0.00555
974.347	0.0053
983.994	0.00416
993.64	0.00555
1003.29	0.0065
1012.93	0.00423
1022.58	0.00317
1032.23	0.0034
1041.87	0.00352
1051.52	0.00319
1061.17	0.0028
1070.81	0.0024617
1080.46	0.00311
1090.11	0.01099
1099.75	0.01707
1109.4	0.00764
1119.05	0.00579
1128.69	0.01171
1138.34	0.01125
1147.99	0.0037
1157.63	0.0021457
1167.28	0.0020185
1176.92	0.002211
1186.57	0.00324
1196.22	0.00396
1205.86	0.00696
1215.51	0.01399
1225.16	0.02654
1234.8	0.04038
1244.45	0.0416
1254.1	0.02241
1263.74	0.02059
1273.39	0.03962
1283.04	0.03762
1292.68	0.0278
1302.33	0.01783
1311.98	0.01872
1321.62	0.01089
1331.27	0.00872
1340.92	0.0152
1350.56	0.0278
1360.21	0.04317
1369.86	0.03126
1379.5	0.01599
1389.15	0.01053
1398.79	0.00991
1408.44	0.00925
1418.09	0.00948
1427.73	0.01141
1437.38	0.01519
1447.03	0.02606
1456.67	0.04168
1466.32	0.04901
1475.97	0.0682
1485.61	0.10384
1495.26	0.11518
1504.91	0.0927
1514.55	0.05184
1524.2	0.02141
1533.85	0.01325
1543.49	0.00969
1553.14	0.00694
1562.79	0.00502
1572.43	0.00445
1582.08	0.00438
1591.73	0.00454
1601.37	0.00449
1611.02	0.00429
1620.67	0.00415
1630.31	0.00406
1639.96	0.00474
1649.6	0.00583
1659.25	0.00749
1668.9	0.00931
1678.54	0.01233
1688.19	0.02242
1697.84	0.05843
1707.48	0.12111
1717.13	0.11042
1726.78	0.0417
1736.42	0.01458
1746.07	0.00796
1755.72	0.00583
1765.36	0.00534
1775.01	0.00547
1784.66	0.00466
1794.3	0.00318
1803.95	0.0024183
1813.6	0.0022754
1823.24	0.0022679
1832.89	0.0020077
1842.54	0.0015046
1852.18	0.001308
1861.83	0.001324
1871.47	0.001187
1881.12	0.00106
1890.77	0.00102
1900.41	0.001051
1910.06	0.00114
1919.71	0.001169
1929.35	0.001182
1939	0.001083
1948.65	0.000971
1958.29	0.000929
1967.94	0.00092
1977.59	0.00089
1987.23	0.000907
1996.88	0.000995
2006.53	0.001021
2016.17	0.000924
2025.82	0.001035
2035.47	0.001072
2045.11	0.000964
2054.76	0.000946
2064.41	0.00089
2074.05	0.00098
2083.7	0.001011
2093.35	0.001092
2102.99	0.000994
2112.64	0.000963
2122.28	0.001076
2131.93	0.001097
2141.58	0.001084
2151.22	0.000942
2160.87	0.000879
2170.52	0.000894
2180.16	0.000814
2189.81	0.000818
2199.46	0.000792
2209.1	0.000866
2218.75	0.000985
2228.4	0.001032
2238.04	0.001006
2247.69	0.000996
2257.34	0.001007
2266.98	0.000944
2276.63	0.000966
2286.28	0.001027
2295.92	0.001176
2305.57	0.001156
2315.22	0.001046
2324.86	0.001067
2334.51	0.001029
2344.16	0.001026
2353.8	0.001081
2363.45	0.001048
2373.09	0.001185
2382.74	0.00123
2392.39	0.001163
2402.03	0.001069
2411.68	0.001017
2421.33	0.001096
2430.97	0.001115
2440.62	0.00101
2450.27	0.001014
2459.91	0.001048
2469.56	0.001052
2479.21	0.001013
2488.85	0.000966
2498.5	0.000924
2508.15	0.00087
2517.79	0.00101
2527.44	0.001165
2537.09	0.001144
2546.73	0.001227
2556.38	0.001309
2566.03	0.001342
2575.67	0.001427
2585.32	0.001421
2594.96	0.0014873
2604.61	0.001467
2614.26	0.00164864
2623.9	0.0020516
2633.55	0.0024847
2643.2	0.00291
2652.84	0.00345
2662.49	0.00404
2672.14	0.00391
2681.78	0.00331
2691.43	0.0020628
2701.08	0.001432
2710.72	0.0015403
2720.37	0.0014813
2730.02	0.0015657
2739.66	0.0017198
2749.31	0.0017695
2758.96	0.0018803
2768.6	0.0017597
2778.25	0.0018833
2787.9	0.0022682
2797.54	0.00297
2807.19	0.00383
2816.84	0.00518
2826.48	0.00713
2836.13	0.01253
2845.77	0.02993
2855.42	0.06265
2865.07	0.067
2874.71	0.04313
2884.36	0.02823
2894.01	0.04244
2903.65	0.13078
2913.3	0.2757
2922.95	0.2831
2932.59	0.12353
2942.24	0.0573
2951.89	0.03378
2961.53	0.02247
2971.18	0.01558
2980.83	0.00884
2990.47	0.00541
3000.12	0.00431
3009.77	0.00377
3019.41	0.00365
3029.06	0.00333
3038.71	0.00297
3048.35	0.00288
3058	0.0023757
3067.64	0.0020429
3077.29	0.0018874
3086.94	0.0014931
3096.58	0.000958
3106.23	0.000757
3115.88	0.00056
3125.52	0.00039
3135.17	0.00045
3144.82	0.00034
3154.46	0.00017
3164.11	0.00023
3173.76	0.00034
3183.4	0.00053
3193.05	0.000656
3202.7	0.00041
3212.34	0.0004
3221.99	0.00026
3231.64	0.00046
3241.28	0.00011
3250.93	9e-05
3260.58	0.00015
3270.22	0.00015
3279.87	0.0004
3289.52	0.00035
3299.16	0.00029
3308.81	0.0005
3318.45	0.000626
3328.1	0.00041
3337.75	0.00042
3347.39	0.00047
3357.04	0.000808
3366.69	0.001119
3376.33	0.001464
3385.98	0.0015669
3395.63	0.0017301
3405.27	0.0022775
3414.92	0.0025561
3424.57	0.003
3434.21	0.0046
3443.86	0.00619
3453.51	0.00652
3463.15	0.00398
3472.8	0.0015358
3482.45	0.00074
3492.09	0.0005
3501.74	0.00045
3511.39	0.00048
3521.03	0.00044
3530.68	0.00037
3540.33	0.00054
3549.97	0.00053
3559.62	0.000842
3569.26	0.00054
3578.91	0.00057
3588.56	0.00057
3598.2	0.00043
3607.85	0.00051
3617.5	0.00054
3627.14	0.00046
3636.79	0.00042
3646.44	0.00053
3656.08	0.00056
3665.73	0.000633
3675.38	0.00041
3685.02	0.00055
3694.67	0.000586
3704.32	0.000707
3713.96	0.00055
3723.61	0.000803
3733.26	0.000856
3742.9	0.000831
3752.55	0.000692
3762.2	0.00056
3771.84	0.000659
3781.49	0.000733
3791.13	0.000655
3800.78	0.000832
3810.43	0.000839
3820.07	0.000765
3829.72	0.000863
3839.37	0.001027
3849.01	0.000942
3858.66	0.000904
3868.31	0.000834
3877.95	0.000941
3887.6	0.001048
3897.25	0.001129
3906.89	0.001017
3916.54	0.001069
3926.19	0.000892
3935.83	0.000924
3945.48	0.00101
3955.13	0.001051
3964.77	0.001083
3974.42	0.001058
3984.07	0.000978
3993.71	0.000975
