Infrared Spectrum: Methylendipiperidine
Formula: C 11 H 22 N 2
CAS: 880-09-1
State: gas
Origin: EPA-IR VAPOR PHASE LIBRARY
1/CM	ABSORBANCE
549.8	0.0008883
559.445	0.0005396
569.09	0.0009281
578.734	0.00118
588.379	0.00117
598.024	0.00131
607.669	0.00129
617.313	0.0007089
626.958	0.0008519
636.603	0.0009998
646.248	0.0008924
655.893	0.0008357
665.537	0.0006302
675.182	0.0006248
684.827	0.0009243
694.472	0.0009407
704.116	0.00105
713.761	0.00122
723.406	0.00124
733.051	0.00169
742.695	0.00199
752.34	0.00286
761.985	0.00564
771.63	0.01109
781.275	0.01605
790.919	0.00973
800.564	0.00521
810.209	0.00474
819.854	0.00376
829.498	0.00324
839.143	0.00472
848.788	0.01262
858.433	0.02855
868.078	0.02245
877.722	0.00725
887.367	0.00404
897.012	0.0035
906.657	0.00331
916.301	0.00307
925.946	0.003
935.591	0.00312
945.236	0.00467
954.88	0.00783
964.525	0.01211
974.17	0.0187
983.815	0.02433
993.46	0.03874
1003.1	0.0442
1012.75	0.02534
1022.39	0.0337
1032.04	0.04281
1041.68	0.04286
1051.33	0.02569
1060.97	0.0246
1070.62	0.0274
1080.26	0.03446
1089.91	0.03318
1099.55	0.04065
1109.2	0.05829
1118.84	0.07786
1128.49	0.09834
1138.13	0.06753
1147.78	0.04967
1157.42	0.08958
1167.07	0.09618
1176.71	0.0439
1186.36	0.02094
1196	0.01786
1205.64	0.0231
1215.29	0.02716
1224.93	0.02644
1234.58	0.02927
1244.22	0.02924
1253.87	0.03638
1263.51	0.04708
1273.16	0.0421
1282.8	0.03388
1292.45	0.03582
1302.09	0.03286
1311.74	0.02382
1321.38	0.02226
1331.03	0.02271
1340.67	0.0421
1350.32	0.06881
1359.96	0.05863
1369.61	0.06355
1379.25	0.04173
1388.9	0.02092
1398.54	0.01792
1408.18	0.02824
1417.83	0.02865
1427.47	0.01941
1437.12	0.02653
1446.76	0.03912
1456.41	0.03961
1466.05	0.02792
1475.7	0.01513
1485.34	0.00753
1494.99	0.0044
1504.63	0.00342
1514.28	0.00272
1523.92	0.00224
1533.57	0.00177
1543.21	0.00158
1552.86	0.00156
1562.5	0.00165
1572.15	0.0018
1581.79	0.00167
1591.44	0.00163
1601.08	0.00165
1610.73	0.0017
1620.37	0.00183
1630.01	0.00189
1639.66	0.00169
1649.3	0.00163
1658.95	0.00156
1668.59	0.00159
1678.24	0.00151
1687.88	0.00139
1697.53	0.0013
1707.17	0.00129
1716.82	0.00129
1726.46	0.00134
1736.11	0.00121
1745.75	0.00143
1755.4	0.0015
1765.04	0.00161
1774.69	0.00149
1784.33	0.00149
1793.98	0.00149
1803.62	0.00152
1813.27	0.00164
1822.91	0.00159
1832.55	0.0017
1842.2	0.00188
1851.84	0.00186
1861.49	0.00188
1871.13	0.00199
1880.78	0.00226
1890.42	0.00231
1900.07	0.00227
1909.71	0.00226
1919.36	0.00214
1929	0.00213
1938.65	0.00216
1948.29	0.00209
1957.94	0.00195
1967.58	0.00186
1977.23	0.00165
1986.87	0.00143
1996.52	0.00137
2006.16	0.00143
2015.81	0.00155
2025.45	0.00163
2035.1	0.00151
2044.74	0.00144
2054.38	0.00146
2064.03	0.00154
2073.67	0.00157
2083.32	0.00183
2092.96	0.00173
2102.61	0.00159
2112.25	0.00148
2121.9	0.00146
2131.54	0.00155
2141.19	0.00169
2150.83	0.00197
2160.48	0.00199
2170.12	0.0018
2179.77	0.00194
2189.41	0.00208
2199.06	0.00205
2208.7	0.00208
2218.35	0.00224
2227.99	0.00245
2237.64	0.00231
2247.28	0.00218
2256.92	0.00223
2266.57	0.00212
2276.21	0.00201
2285.86	0.00208
2295.5	0.00217
2305.15	0.00226
2314.79	0.0022
2324.44	0.00214
2334.08	0.00218
2343.73	0.00209
2353.37	0.00194
2363.02	0.0019
2372.66	0.00201
2382.31	0.00212
2391.95	0.00215
2401.6	0.00232
2411.24	0.00268
2420.89	0.00277
2430.53	0.00248
2440.18	0.00236
2449.82	0.00248
2459.47	0.00264
2469.11	0.00296
2478.75	0.00327
2488.4	0.00319
2498.04	0.00354
2507.69	0.00372
2517.33	0.00361
2526.98	0.00318
2536.62	0.00302
2546.27	0.00323
2555.91	0.00361
2565.56	0.00438
2575.2	0.00559
2584.85	0.00737
2594.49	0.00921
2604.14	0.011
2613.78	0.01223
2623.43	0.01258
2633.07	0.01329
2642.72	0.01585
2652.36	0.02023
2662.01	0.02647
2671.65	0.03174
2681.29	0.03246
2690.94	0.03361
2700.58	0.03803
2710.23	0.04279
2719.87	0.05011
2729.52	0.06149
2739.16	0.07552
2748.81	0.09244
2758.45	0.11902
2768.1	0.15265
2777.74	0.17216
2787.39	0.14948
2797.03	0.1106
2806.68	0.08966
2816.32	0.08276
2825.97	0.07624
2835.61	0.07112
2845.26	0.07337
2854.9	0.10351
2864.55	0.13739
2874.19	0.08979
2883.84	0.062
2893.48	0.06807
2903.12	0.08049
2912.77	0.1151
2922.41	0.21335
2932.06	0.40783
2941.7	0.58531
2951.35	0.28252
2960.99	0.08701
2970.64	0.05359
2980.28	0.02976
2989.93	0.0176
2999.57	0.01147
3009.22	0.00747
3018.86	0.00525
3028.51	0.00407
3038.15	0.00321
3047.8	0.00295
3057.44	0.00277
3067.09	0.00278
3076.73	0.00245
3086.38	0.00234
3096.02	0.00233
3105.67	0.00212
3115.31	0.00208
3124.95	0.00183
3134.6	0.0017
3144.24	0.00175
3153.89	0.00192
3163.53	0.0022
3173.18	0.00252
3182.82	0.00247
3192.47	0.00209
3202.11	0.00172
3211.76	0.00181
3221.4	0.00164
3231.05	0.00185
3240.69	0.00155
3250.34	0.00143
3259.98	0.00107
3269.63	0.0008961
3279.27	0.0008243
3288.92	0.0008142
3298.56	0.0008457
3308.21	0.0007949
3317.85	0.00101
3327.49	0.0009679
3337.14	0.0008273
3346.78	0.0009238
3356.43	0.00106
3366.07	0.0011
3375.72	0.00113
3385.36	0.00129
3395.01	0.00134
3404.65	0.00111
3414.3	0.0008034
3423.94	0.0009445
3433.59	0.00105
3443.23	0.0007969
3452.88	0.0006822
3462.52	0.0006572
3472.17	0.0007833
3481.81	0.0007076
3491.46	0.0009544
3501.1	0.0009508
3510.75	0.0009305
3520.39	0.00107
3530.04	0.00106
3539.68	0.00102
3549.32	0.0006595
3558.97	0.000796
3568.61	0.0005713
3578.26	0.0008379
3587.9	0.0007304
3597.55	0.0007595
3607.19	0.0005822
3616.84	0.000575
3626.48	0.0006719
3636.13	0.0007384
3645.77	0.0008134
3655.42	0.0009202
3665.06	0.0009211
3674.71	0.0009955
3684.35	0.0009958
3694	0.00102
3703.64	0.00105
3713.29	0.00127
3722.93	0.00122
3732.58	0.0013
3742.22	0.00154
3751.86	0.00139
3761.51	0.00134
3771.15	0.00102
3780.8	0.0013
3790.44	0.00142
3800.09	0.00151
3809.73	0.00142
3819.38	0.00134
3829.02	0.00145
3838.67	0.00132
3848.31	0.00144
3857.96	0.00149
3867.6	0.00143
3877.25	0.00157
3886.89	0.00159
3896.54	0.00171
3906.18	0.00185
3915.83	0.00177
3925.47	0.00204
3935.12	0.00213
3944.76	0.00191
3954.41	0.00194
3964.05	0.00183
3973.69	0.00186
3983.34	0.0018
3992.98	0.00158
