Infrared Spectrum: 9H-Purine-6(1H)-thione, 2-amino-9-Beta-D-ribofuranosyl-, 2',3',5'-tribenzoate
Formula: C31 H25 N5 O7 S
CAS: 88010-92-8
State: SOLID (1 mg / 500 mg KBr DISC)
Class: COBLENTZ III
Instrument: PERKIN-ELMER 221-G (GRATING)
Instrument parameters: FILTER AT 2490, 980 CM^-^1. GRATING 4000-1428 CM^-^1, NaCl PRISM 1428-650 CM^-^1
Sampling: TRANSMISSION
Resolution: 2
Origin: SOUTHERN RESEARCH INSTITUTE
1/CM	TRANSMITTANCE
633	0.7513
642	0.7456
651	0.7944
660	0.7922
669	0.7869
678	0.6947
687	0.7179
696	0.437
705	0.3383
714	0.5702
723	0.7942
732	0.853
741	0.8751
750	0.8802
759	0.831
768	0.8848
777	0.8486
786	0.7893
795	0.7785
804	0.8291
813	0.8879
822	0.8896
831	0.8819
840	0.873
849	0.8648
858	0.8585
867	0.8549
876	0.8549
885	0.857
894	0.8608
903	0.8567
912	0.8395
921	0.8279
930	0.797
939	0.7175
948	0.6284
957	0.7529
966	0.8113
975	0.8114
984	0.8015
993	0.7439
1002	0.7745
1011	0.6689
1020	0.6291
1029	0.7483
1038	0.7456
1047	0.6972
1056	0.5179
1065	0.563
1074	0.499
1083	0.3892
1092	0.3982
1101	0.3859
1110	0.3693
1119	0.4707
1128	0.621
1137	0.7226
1146	0.7092
1155	0.6838
1164	0.5475
1173	0.5656
1182	0.617
1191	0.7073
1200	0.766
1209	0.771
1218	0.7113
1227	0.5082
1236	0.3849
1245	0.3087
1254	0.2222
1263	0.2373
1272	0.3212
1281	0.4835
1290	0.6363
1299	0.5409
1308	0.6553
1317	0.7878
1326	0.7918
1335	0.7606
1344	0.7557
1353	0.7569
1362	0.7422
1371	0.723
1380	0.6776
1389	0.767
1398	0.8516
1407	0.8513
1416	0.8671
1425	0.873
1434	0.8288
1443	0.6421
1452	0.9237
1461	0.9269
1470	0.8918
1479	0.8274
1488	0.858
1497	0.8794
1506	0.8743
1515	0.8439
1524	0.7859
1533	0.7091
1542	0.4698
1551	0.3522
1560	0.2748
1569	0.2407
1578	0.275
1587	0.3368
1596	0.4426
1605	0.4652
1614	0.3495
1623	0.3413
1632	0.4251
1641	0.5683
1650	0.7381
1659	0.8008
1668	0.7709
1677	0.7269
1686	0.6727
1695	0.5906
1704	0.3344
1713	0.2206
1722	0.2163
1731	0.3441
1740	0.5842
1749	0.7976
1758	0.8783
1767	0.9097
1776	0.9314
1785	0.9432
1794	0.9505
1803	0.9544
1812	0.957
1821	0.9651
1830	0.9741
1839	0.9807
1848	0.9825
1857	0.9832
1866	0.9837
1875	0.9826
1884	0.9801
1893	0.9744
1902	0.9649
1911	0.9638
1920	0.964
1929	0.9675
1938	0.9676
1947	0.9669
1956	0.9663
1965	0.9663
1974	0.9663
1983	0.9663
1992	0.9663
2001	0.9661
2010	0.9659
2019	0.9656
2028	0.9653
2037	0.9651
2046	0.9649
2055	0.9648
2064	0.9646
2073	0.9645
2082	0.9645
2091	0.9645
2100	0.9646
2109	0.9647
2118	0.9648
2127	0.9648
2136	0.9649
2145	0.9649
2154	0.9649
2163	0.9649
2172	0.9649
2181	0.9649
2190	0.965
2199	0.9651
2208	0.9653
2217	0.9654
2226	0.9656
2235	0.9657
2244	0.9659
2253	0.9656
2262	0.9652
2271	0.9649
2280	0.9645
2289	0.9639
2298	0.9627
2307	0.9616
2316	0.9606
2325	0.96
2334	0.9594
2343	0.9588
2352	0.9581
2361	0.9574
2370	0.9567
2379	0.9559
2388	0.9553
2397	0.9547
2406	0.9541
2415	0.9535
2424	0.9528
2433	0.9523
2442	0.9518
2451	0.9513
2460	0.9518
2469	0.9535
2478	0.934
2487	0.9477
2496	0.9469
2505	0.9461
2514	0.946
2523	0.9459
2532	0.9459
2541	0.9459
2550	0.9455
2559	0.9449
2568	0.9443
2577	0.9436
2586	0.9427
2595	0.9408
2604	0.9386
2613	0.9329
2622	0.9304
2631	0.9299
2640	0.9297
2649	0.9293
2658	0.9266
2667	0.9207
2676	0.9132
2685	0.9076
2694	0.9035
2703	0.9017
2712	0.8996
2721	0.8973
2730	0.8943
2739	0.8915
2748	0.8892
2757	0.8874
2766	0.8863
2775	0.8853
2784	0.8836
2793	0.8813
2802	0.8772
2811	0.8717
2820	0.8659
2829	0.86
2838	0.8518
2847	0.8491
2856	0.8468
2865	0.8361
2874	0.8205
2883	0.8043
2892	0.7932
2901	0.7898
2910	0.7897
2919	0.7904
2928	0.7911
2937	0.7918
2946	0.7924
2955	0.7923
2964	0.7856
2973	0.7847
2982	0.7813
2991	0.7788
3000	0.7763
3009	0.7736
3018	0.7642
3027	0.7494
3036	0.7424
3045	0.7281
3054	0.7184
3063	0.7192
3072	0.724
3081	0.7241
3090	0.7212
3099	0.7151
3108	0.7082
3117	0.7049
3126	0.7033
3135	0.7017
3144	0.7001
3153	0.7
3162	0.7003
3171	0.7012
3180	0.7024
3189	0.6978
3198	0.6909
3207	0.6887
3216	0.6881
3225	0.6895
3234	0.6914
3243	0.6939
3252	0.691
3261	0.6785
3270	0.6571
3279	0.6425
3288	0.6403
3297	0.6474
3306	0.6577
3315	0.6668
3324	0.6728
3333	0.6737
3342	0.6699
3351	0.6645
3360	0.6589
3369	0.653
3378	0.6464
3387	0.6394
3396	0.6317
3405	0.6255
3414	0.622
3423	0.6205
3432	0.6207
3441	0.6227
3450	0.626
3459	0.6322
3468	0.6444
3477	0.6639
3486	0.6862
3495	0.6999
3504	0.7274
3513	0.7497
3522	0.7649
3531	0.7719
3540	0.7764
3549	0.7855
3558	0.7981
3567	0.8113
3576	0.8246
3585	0.8376
3594	0.8502
3603	0.8628
3612	0.8741
3621	0.8836
3630	0.891
3639	0.8975
3648	0.9025
3657	0.906
3666	0.9082
3675	0.9095
3684	0.9111
3693	0.9149
3702	0.9184
3711	0.9199
3720	0.9201
3729	0.9204
3738	0.9204
3747	0.9191
3756	0.9178
3765	0.9166
3774	0.9158
3783	0.915
3792	0.9142
3801	0.9135
3810	0.9128
3819	0.9121
3828	0.9114
3837	0.9109
3846	0.9103
3855	0.9097
3864	0.9094
3873	0.9093
3882	0.9093
3891	0.9092
3900	0.9095
3909	0.9097
3918	0.91
3927	0.9101
3936	0.909
3945	0.9079
3954	0.9068
3963	0.9058
3972	0.9048
3981	0.9041
3990	0.9038
3999	0.9035
