Infrared Spectrum: 4-(4-n-Propylphenyl)benzoic acid
Formula: C 16 H 16 O 2
CAS: 88038-94-2
State: gas
Origin: EPA-IR VAPOR PHASE LIBRARY
1/CM	ABSORBANCE
549.8	0.0031
559.445	0.00299
569.09	0.00405
578.734	0.00349
588.379	0.00281
598.024	0.00247
607.669	0.00227
617.313	0.00226
626.958	0.0008938
636.603	0.00173
646.248	0.0011664
655.893	0.00176
665.537	0.0043
675.182	0.00427
684.827	0.00395
694.472	0.0032
704.116	0.00399
713.761	0.00357
723.406	0.00271
733.051	0.0021
742.695	0.00231
752.34	0.00318
761.985	0.00592
771.63	0.00881
781.275	0.00631
790.919	0.00345
800.564	0.00325
810.209	0.0035
819.854	0.00296
829.498	0.00366
839.143	0.00352
848.788	0.00307
858.433	0.00269
868.078	0.0019
877.722	0.0011973
887.367	0.0008156
897.012	0.0011684
906.657	0.000914
916.301	0.0009959
925.946	0.000437
935.591	0.0009432
945.236	0.0009909
954.88	0.00062498
964.525	0.0008217
974.17	0.0008918
983.815	0.0007628
993.46	0.00172
1003.1	0.00396
1012.75	0.00423
1022.39	0.0041
1032.04	0.00189
1041.68	0.00232
1051.33	0.00314
1060.97	0.00542
1070.62	0.01476
1080.26	0.03056
1089.91	0.01308
1099.55	0.00579
1109.2	0.00368
1118.84	0.00327
1128.49	0.00297
1138.13	0.00404
1147.78	0.00424
1157.42	0.00588
1167.07	0.01701
1176.71	0.02369
1186.36	0.01501
1196	0.00889
1205.64	0.0053
1215.29	0.0034
1224.93	0.00429
1234.58	0.00413
1244.22	0.00379
1253.87	0.00408
1263.51	0.00523
1273.16	0.0061
1282.8	0.00624
1292.45	0.00495
1302.09	0.0043
1311.74	0.00468
1321.38	0.00522
1331.03	0.00764
1340.67	0.00862
1350.32	0.00698
1359.96	0.01032
1369.61	0.00868
1379.25	0.0042
1388.9	0.00359
1398.54	0.00407
1408.18	0.00286
1417.83	0.00246
1427.47	0.00184
1437.12	0.0013533
1446.76	0.001436
1456.41	0.00176
1466.05	0.00218
1475.7	0.00194
1485.34	0.00276
1494.99	0.00429
1504.63	0.00313
1514.28	0.0015685
1523.92	0.00202
1533.57	0.0015242
1543.21	0.0012188
1552.86	0.00161
1562.5	0.00167
1572.15	0.0015939
1581.79	0.00166
1591.44	0.0027
1601.08	0.00646
1610.73	0.01108
1620.37	0.00405
1630.01	0.00168
1639.66	0.0012436
1649.3	0.0010413
1658.95	0.0009763
1668.59	0.0011531
1678.24	0.0012429
1687.88	0.0015009
1697.53	0.00206
1707.17	0.00227
1716.82	0.00308
1726.46	0.00359
1736.11	0.00586
1745.75	0.01517
1755.4	0.05759
1765.04	0.03602
1774.69	0.0091
1784.33	0.00439
1793.98	0.00293
1803.62	0.00248
1813.27	0.002
1822.91	0.0015161
1832.55	0.0011647
1842.2	0.0008551
1851.84	0.0008542
1861.49	0.000715
1871.13	0.0007514
1880.78	0.0007318
1890.42	0.0007234
1900.07	0.0010557
1909.71	0.0009923
1919.36	0.0009912
1929	0.0010292
1938.65	0.0009434
1948.29	0.0008099
1957.94	0.00067036
1967.58	0.0007163
1977.23	0.00066995
1986.87	0.00063957
1996.52	0.0005421
2006.16	0.0005569
2015.81	0.0005148
2025.45	0.0005139
2035.1	0.000609677
2044.74	0.000409
2054.38	0.000494
2064.03	0.000456
2073.67	0.000464
2083.32	0.00045
2092.96	0.00047
2102.61	0.0005506
2112.25	0.000464
2121.9	0.000436
2131.54	0.0005387
2141.19	0.000583
2150.83	0.0005323
2160.48	0.00064358
2170.12	0.00056
2179.77	0.0005143
2189.41	0.000395
2199.06	0.000403
2208.7	0.000426
2218.35	0.000348
2227.99	0.000482
2237.64	0.0005367
2247.28	0.000313
2256.92	0.000599959
2266.57	0.000463
2276.21	0.000375
2285.86	0.0005754
2295.5	0.0005841
2305.15	0.0005287
2314.79	0.000443
2324.44	0.0005171
2334.08	0.0005716
2343.73	0.00065523
2353.37	0.000479
2363.02	0.000418
2372.66	0.000378
2382.31	0.0005373
2391.95	0.000408
2401.6	0.0005197
2411.24	0.000378
2420.89	0.0005727
2430.53	0.000472
2440.18	0.000494
2449.82	0.000472
2459.47	0.000404
2469.11	0.0005329
2478.75	0.000434
2488.4	0.000414
2498.04	0.000496
2507.69	0.0005057
2517.33	0.000254
2526.98	0.000496
2536.62	0.000469
2546.27	0.0005476
2555.91	0.000387
2565.56	0.000606408
2575.2	0.00064597
2584.85	0.0005116
2594.49	0.000309
2604.14	0.0005016
2613.78	0.0006246
2623.43	0.000269
2633.07	0.000455
2642.72	0.000402
2652.36	0.00039
2662.01	0.0004
2671.65	0.000501
2681.29	0.000388
2690.94	0.000498
2700.58	0.000436
2710.23	0.0006362
2719.87	0.0005066
2729.52	0.0005201
2739.16	0.000498
2748.81	0.000601832
2758.45	0.0005055
2768.1	0.000454
2777.74	0.0007325
2787.39	0.0008098
2797.03	0.00067143
2806.68	0.0007455
2816.32	0.0007008
2825.97	0.0007595
2835.61	0.0011637
2845.26	0.0012816
2854.9	0.00209
2864.55	0.00307
2874.19	0.00392
2883.84	0.00502
2893.48	0.00338
2903.12	0.00288
2912.77	0.00389
2922.41	0.00557
2932.06	0.00817
2941.7	0.0092
2951.35	0.00637
2960.99	0.00657
2970.64	0.00857
2980.28	0.00596
2989.93	0.00322
2999.57	0.00231
3009.22	0.00231
3018.86	0.00271
3028.51	0.00529
3038.15	0.00344
3047.8	0.00281
3057.44	0.00283
3067.09	0.00261
3076.73	0.00234
3086.38	0.00218
3096.02	0.00197
3105.67	0.0013595
3115.31	0.0008945
3124.95	0.0009404
3134.6	0.0009703
3144.24	0.00068927
3153.89	0.0008938
3163.53	0.00067795
3173.18	0.000281
3182.82	0.0005042
3192.47	0.000357
3202.11	0.000325
3211.76	0.0005415
3221.4	0.000433
3231.05	0.000355
3240.69	0.000292
3250.34	0.0005737
3259.98	0.000327
3269.63	0.000289
3279.27	0.000345
3288.92	0.000392
3298.56	0.000437
3308.21	0.000344
3317.85	0.0005717
3327.49	0.000449
3337.14	0.0005202
3346.78	0.000427
3356.43	0.0005645
3366.07	0.000341
3375.72	0.000435
3385.36	0.00064625
3395.01	0.00063236
3404.65	0.000527
3414.3	0.0005452
3423.94	0.000206
3433.59	0.0005017
3443.23	0.0005475
3452.88	0.000603687
3462.52	0.000117
3472.17	0.0007557
3481.81	0.0007792
3491.46	0.0007775
3501.1	0.00092
3510.75	0.000485
3520.39	0.0008123
3530.04	0.000373
3539.68	0.0007582
3549.32	0.0009584
3558.97	0.0008468
3568.61	0.00224
3578.26	0.0129
3587.9	0.01534
3597.55	0.00166
3607.19	0.0008384
3616.84	0.0010447
3626.48	0.00062416
3636.13	0.0007861
3645.77	0.0007062
3655.42	0.0005771
3665.06	0.0005599
3674.71	0.00064141
3684.35	0.00065097
3694	0.0005548
3703.64	0.0005347
3713.29	0.0005565
3722.93	0.000607007
3732.58	0.00059816
3742.22	0.000525
3751.86	0.00048
3761.51	0.0005226
3771.15	0.000493
3780.8	0.00064794
3790.44	0.0007833
3800.09	0.000255
3809.73	0.0007722
3819.38	0.000311
3829.02	0.000422
3838.67	0.000445
3848.31	0.000402
3857.96	0.000343
3867.6	0.000228
3877.25	0.0005406
3886.89	0.000461
3896.54	0.0007197
3906.18	0.00068605
3915.83	0.0005083
3925.47	0.0005708
3935.12	0.000328
3944.76	0.000413
3954.41	0.00067116
3964.05	0.000432
3973.69	0.000354
3983.34	0.000272
3992.98	0.00059024
