Infrared Spectrum: 6-Methoxy-m-toluenesulfonyl chloride
Formula: C 8 H 9 Cl O 3 S
CAS: 88040-86-2
State: gas
Origin: EPA-IR VAPOR PHASE LIBRARY
1/CM	ABSORBANCE
549.8	0.067805
559.445	0.049935
569.09	0.040495
578.734	0.060095
588.379	0.140215
598.024	0.127875
607.669	0.037005
617.313	0.012915
626.958	0.007125
636.603	0.004715
646.248	0.003125
655.893	0.002785
665.537	0.003425
675.182	0.007105
684.827	0.026235
694.472	0.025335
704.116	0.005555
713.761	0.005225
723.406	0.006875
733.051	0.005565
742.695	0.004405
752.34	0.002885
761.985	0.001755
771.63	0.001525
781.275	0.001945
790.919	0.003625
800.564	0.009195
810.209	0.020975
819.854	0.019175
829.498	0.008505
839.143	0.003615
848.788	0.002535
858.433	0.002765
868.078	0.006265
877.722	0.013065
887.367	0.010425
897.012	0.004795
906.657	0.002695
916.301	0.001735
925.946	0.001365
935.591	0.001615
945.236	0.002025
954.88	0.002505
964.525	0.003355
974.17	0.004545
983.815	0.006495
993.46	0.009305
1003.1	0.014945
1012.75	0.026105
1022.39	0.031805
1032.04	0.021735
1041.68	0.011195
1051.33	0.011995
1060.97	0.022565
1070.62	0.023395
1080.26	0.009075
1089.91	0.004555
1099.55	0.003865
1109.2	0.003835
1118.84	0.004865
1128.49	0.007935
1138.13	0.017565
1147.78	0.030375
1157.42	0.031215
1167.07	0.051975
1176.71	0.102335
1186.36	0.104105
1196	0.062065
1205.64	0.023735
1215.29	0.014905
1224.93	0.014345
1234.58	0.015995
1244.22	0.026525
1253.87	0.044685
1263.51	0.058745
1273.16	0.079915
1282.8	0.100245
1292.45	0.056095
1302.09	0.017615
1311.74	0.008615
1321.38	0.006045
1331.03	0.005435
1340.67	0.005815
1350.32	0.006805
1359.96	0.009155
1369.61	0.017415
1379.25	0.039325
1388.9	0.073015
1398.54	0.095885
1408.18	0.073475
1417.83	0.030855
1427.47	0.019045
1437.12	0.021935
1446.76	0.022435
1456.41	0.018805
1466.05	0.023195
1475.7	0.028935
1485.34	0.056225
1494.99	0.121385
1504.63	0.113125
1514.28	0.034185
1523.92	0.012185
1533.57	0.008075
1543.21	0.007155
1552.86	0.008475
1562.5	0.010675
1572.15	0.012555
1581.79	0.013245
1591.44	0.011825
1601.08	0.016375
1610.73	0.016645
1620.37	0.009215
1630.01	0.004615
1639.66	0.002865
1649.3	0.002225
1658.95	0.001745
1668.59	0.001455
1678.24	0.001144
1687.88	0.001109
1697.53	0.0011119
1707.17	0.0011746
1716.82	0.0012227
1726.46	0.001265
1736.11	0.001425
1745.75	0.001805
1755.4	0.001905
1765.04	0.001985
1774.69	0.002015
1784.33	0.001775
1793.98	0.0012093
1803.62	0.0010861
1813.27	0.0011011
1822.91	0.001315
1832.55	0.001855
1842.2	0.001855
1851.84	0.0010526
1861.49	0.0009075
1871.13	0.0010794
1880.78	0.001365
1890.42	0.002005
1900.07	0.001825
1909.71	0.001265
1919.36	0.0009424
1929	0.0010186
1938.65	0.0011354
1948.29	0.0012008
1957.94	0.0010729
1967.58	0.0010746
1977.23	0.001265
1986.87	0.001525
1996.52	0.002135
2006.16	0.002425
2015.81	0.002705
2025.45	0.002785
2035.1	0.002115
2044.74	0.001635
2054.38	0.001385
2064.03	0.0010965
2073.67	0.0009321
2083.32	0.0010339
2092.96	0.0009193
2102.61	0.0007692
2112.25	0.000687
2121.9	0.0006962
2131.54	0.0007565
2141.19	0.0007793
2150.83	0.0007592
2160.48	0.0006905
2170.12	0.0006889
2179.77	0.0006149
2189.41	0.0005322
2199.06	0.0005797
2208.7	0.0006416
2218.35	0.0008231
2227.99	0.0009441
2237.64	0.0010298
2247.28	0.0010481
2256.92	0.0008145
2266.57	0.0008544
2276.21	0.0008018
2285.86	0.0009115
2295.5	0.0008532
2305.15	0.000845
2314.79	0.0008516
2324.44	0.0009051
2334.08	0.0010595
2343.73	0.0010973
2353.37	0.0011796
2363.02	0.0010426
2372.66	0.0009199
2382.31	0.000759
2391.95	0.0006905
2401.6	0.0006181
2411.24	0.000626
2420.89	0.000502
2430.53	0.0006823
2440.18	0.0006161
2449.82	0.0005936
2459.47	0.0006651
2469.11	0.0007398
2478.75	0.0006637
2488.4	0.0007418
2498.04	0.0008706
2507.69	0.0009922
2517.33	0.0010929
2526.98	0.001295
2536.62	0.001605
2546.27	0.002005
2555.91	0.002105
2565.56	0.002075
2575.2	0.001625
2584.85	0.0011243
2594.49	0.0009538
2604.14	0.0010682
2613.78	0.0009585
2623.43	0.0009371
2633.07	0.0009538
2642.72	0.0009239
2652.36	0.0008664
2662.01	0.0007087
2671.65	0.0007418
2681.29	0.0006195
2690.94	0.0006576
2700.58	0.0005388
2710.23	0.0006199
2719.87	0.000736
2729.52	0.0007992
2739.16	0.0011313
2748.81	0.001425
2758.45	0.001625
2768.1	0.001405
2777.74	0.001435
2787.39	0.001465
2797.03	0.001465
2806.68	0.001795
2816.32	0.002395
2825.97	0.003445
2835.61	0.005595
2845.26	0.010765
2854.9	0.011865
2864.55	0.009205
2874.19	0.009165
2883.84	0.009525
2893.48	0.009725
2903.12	0.010865
2912.77	0.012065
2922.41	0.014325
2932.06	0.021355
2941.7	0.027215
2951.35	0.025385
2960.99	0.018695
2970.64	0.014435
2980.28	0.010945
2989.93	0.008815
2999.57	0.009105
3009.22	0.011285
3018.86	0.014255
3028.51	0.013675
3038.15	0.013275
3047.8	0.009855
3057.44	0.006235
3067.09	0.006195
3076.73	0.006375
3086.38	0.004965
3096.02	0.003295
3105.67	0.002445
3115.31	0.001955
3124.95	0.001265
3134.6	0.0012148
3144.24	0.0009609
3153.89	0.0009253
3163.53	0.0007754
3173.18	0.000774
3182.82	0.0005478
3192.47	0.0005104
3202.11	0.0004508
3211.76	0.000674
3221.4	0.000635
3231.05	0.0005117
3240.69	0.0004826
3250.34	0.0004661
3259.98	0.0003766
3269.63	0.0004539
3279.27	0.0003848
3288.92	0.0002051
3298.56	0.0003255
3308.21	0.0003619
3317.85	0.0004423
3327.49	0.00017
3337.14	0.00032373
3346.78	0.00030049
3356.43	0.0004405
3366.07	0.00033198
3375.72	0.0003787
3385.36	0.0005789
3395.01	0.0005019
3404.65	0.0003792
3414.3	0.0001888
3423.94	0.00025736
3433.59	0.000188
3443.23	0.000369
3452.88	0.00031021
3462.52	0.000372
3472.17	0.0004857
3481.81	0.000382
3491.46	0.0004037
3501.1	0.00027282
3510.75	0.0003789
3520.39	0.00027554
3530.04	0.00031958
3539.68	0.00032509
3549.32	0.0003486
3558.97	0.000175
3568.61	0.000234986
3578.26	0.0003614
3587.9	0.0003424
3597.55	0.0004903
3607.19	0.0003391
3616.84	0.00025337
3626.48	0.00027057
3636.13	0.0004124
3645.77	0.00028453
3655.42	0.0004051
3665.06	0.00024636
3674.71	0.0004357
3684.35	0.0002116
3694	0.0002131
3703.64	0.00027832
3713.29	0.000446
3722.93	0.00031627
3732.58	0.0004387
3742.22	0.0005644
3751.86	0.00033469
3761.51	0.0004635
3771.15	0.0001975
3780.8	0.0004388
3790.44	0.0004154
3800.09	0.00032655
3809.73	0.00024986
3819.38	0.00028033
3829.02	0.00025283
3838.67	0.0003738
3848.31	0.00026954
3857.96	0.0003459
3867.6	0.0007352
3877.25	0.0003631
3886.89	0.0005533
3896.54	0.0004271
3906.18	0.0005075
3915.83	0.0006804
3925.47	0.00030276
3935.12	0.0005021
3944.76	0.0006497
3954.41	0.0004561
3964.05	0.000446
3973.69	0.0003408
3983.34	0.0005176
3992.98	0.0005944
