Infrared Spectrum: 4-BENZYLIDENE-2-METHYL-2-OXAZOLIN-5-ONE
Formula: C11 H9 N O2
CAS: 881-90-3
State: SOLID (MULL)
Class: COBLENTZ III
Instrument: BECKMAN IR-7 (GRATING)
Instrument parameters: GRATING CHANGES AT 3000, 2200, 1150 CM^-^1
Sampling: TRANSMISSION
Resolution: 4
Origin: WESTERN REGIONAL RES. USDA
1/CM	TRANSMITTANCE
599.357	0.816
608.36	0.819
617.363	0.817
626.367	0.792
635.37	0.836
644.373	0.814
653.376	0.7849
662.38	0.838
671.383	0.829
680.386	0.815
689.389	0.429
698.393	0.708
707.396	0.817
716.399	0.822
725.402	0.817
734.406	0.819
743.409	0.818
752.412	0.773
761.415	0.783
770.418	0.4294
779.422	0.796
788.425	0.826
797.428	0.829
806.431	0.832
815.435	0.831
824.438	0.829
833.441	0.824
842.444	0.825
851.448	0.823
860.451	0.818
869.454	0.789
878.457	0.798
887.461	0.808
896.464	0.596
905.467	0.5499
914.47	0.789
923.474	0.808
932.477	0.806
941.48	0.777
950.483	0.716
959.486	0.81
968.49	0.813
977.493	0.801
986.496	0.808
995.499	0.78
1004.5	0.806
1013.51	0.814
1022.51	0.809
1031.51	0.765
1040.52	0.79
1049.52	0.808
1058.52	0.748
1067.53	0.813
1076.53	0.811
1085.53	0.814
1094.53	0.809
1103.54	0.803
1112.54	0.806
1121.54	0.809
1130.55	0.806
1139.55	0.799
1148.55	0.767
1157.56	0.717
1166.56	0.319
1175.56	0.404
1184.57	0.753
1193.57	0.794
1202.57	0.804
1211.58	0.796
1220.58	0.781
1229.58	0.69
1238.59	0.708
1247.59	0.747
1256.59	0.652
1265.6	0.35
1274.6	0.666
1283.6	0.744
1292.61	0.752
1301.61	0.749
1310.61	0.738
1319.62	0.719
1328.62	0.783
1337.62	0.756
1346.63	0.79
1355.63	0.774
1364.63	0.73
1373.64	0.638
1382.64	0.547
1391.64	0.748
1400.65	0.79
1409.65	0.788
1418.65	0.761
1427.65	0.647
1436.66	0.708
1445.66	0.648
1454.66	0.494
1463.67	0.57
1472.67	0.666
1481.67	0.764
1490.68	0.772
1499.68	0.759
1508.68	0.806
1517.69	0.806
1526.69	0.806
1535.69	0.81
1544.7	0.806
1553.7	0.811
1562.7	0.809
1571.71	0.79
1580.71	0.795
1589.71	0.721
1598.72	0.731
1607.72	0.577
1616.72	0.793
1625.73	0.793
1634.73	0.767
1643.73	0.682
1652.74	0.477
1661.74	0.3331
1670.74	0.6
1679.75	0.645
1688.75	0.77
1697.75	0.785
1706.76	0.779
1715.76	0.802
1724.76	0.791
1733.76	0.783
1742.77	0.758
1751.77	0.731
1760.77	0.746
1769.78	0.513
1778.78	0.223
1787.78	0.451
1796.79	0.589
1805.79	0.525
1814.79	0.643
1823.8	0.758
1832.8	0.799
1841.8	0.816
1850.81	0.822
1859.81	0.821
1868.81	0.824
1877.82	0.822
1886.82	0.819
1895.82	0.806
1904.83	0.813
1913.83	0.822
1922.83	0.824
1931.84	0.818
1940.84	0.825
1949.84	0.825
1958.85	0.811
1967.85	0.819
1976.85	0.827
1985.86	0.829
1994.86	0.829
2003.86	0.827
2012.87	0.827
2021.87	0.827
2030.87	0.828
2039.87	0.829
2048.88	0.8304
2057.88	0.831
2066.88	0.831
2075.89	0.831
2084.89	0.831
2093.89	0.83
2102.9	0.829
2111.9	0.829
2120.9	0.828
2129.91	0.827
2138.91	0.826
2147.91	0.825
2156.92	0.8238
2165.92	0.822
2174.92	0.82
2183.93	0.8211
2192.93	0.823
2201.93	0.824
2210.94	0.823
2219.94	0.822
2228.94	0.8203
2237.95	0.82
2246.95	0.82
2255.95	0.819
2264.96	0.819
2273.96	0.82
2282.96	0.8189
2291.97	0.817
2300.97	0.817
2309.97	0.8152
2318.98	0.8146
2327.98	0.8111
2336.98	0.803
2345.98	0.7948
2354.99	0.7887
2363.99	0.7835
2372.99	0.7735
2382	0.7694
2391	0.7825
2400	0.8005
2409.01	0.808
2418.01	0.809
2427.01	0.81
2436.02	0.81
2445.02	0.8087
2454.02	0.808
2463.03	0.8075
2472.03	0.806
2481.03	0.806
2490.04	0.8062
2499.04	0.808
2508.04	0.808
2517.05	0.808
2526.05	0.8066
2535.05	0.805
2544.06	0.804
2553.06	0.803
2562.06	0.802
2571.07	0.801
2580.07	0.8
2589.07	0.799
2598.08	0.798
2607.08	0.797
2616.08	0.7948
2625.09	0.792
2634.09	0.792
2643.09	0.7912
2652.09	0.7876
2661.1	0.785
2670.1	0.7855
2679.1	0.786
2688.11	0.786
2697.11	0.788
2706.11	0.788
2715.12	0.786
2724.12	0.7851
2733.12	0.7785
2742.13	0.7771
2751.13	0.7806
2760.13	0.7822
2769.14	0.7822
2778.14	0.781
2787.14	0.7781
2796.15	0.7731
2805.15	0.7629
2814.15	0.7492
2823.16	0.7375
2832.16	0.7161
2841.16	0.5683
2850.17	0.4065
2859.17	0.3291
2868.17	0.3501
2877.18	0.3883
2886.18	0.4189
2895.18	0.3787
2904.19	0.2482
2913.19	0.1755
2922.19	0.126
2931.2	0.1657
2940.2	0.2152
2949.2	0.2009
2958.2	0.2315
2967.21	0.3155
2976.21	0.4875
2985.21	0.5655
2994.22	0.6223
3003.22	0.6645
3012.22	0.693
3021.23	0.71
3030.23	0.7192
3039.23	0.7192
3048.24	0.7032
3057.24	0.7007
3066.24	0.7025
3075.25	0.673
3084.25	0.7173
3093.25	0.746
3102.26	0.747
3111.26	0.747
3120.26	0.747
3129.27	0.746
3138.27	0.745
3147.27	0.744
3156.28	0.7428
3165.28	0.742
3174.28	0.742
3183.29	0.742
3192.29	0.742
3201.29	0.744
3210.3	0.7446
3219.3	0.746
3228.3	0.747
3237.31	0.7473
3246.31	0.747
3255.31	0.7466
3264.31	0.745
3273.32	0.744
3282.32	0.744
3291.32	0.744
3300.33	0.7428
3309.33	0.742
3318.33	0.7406
3327.34	0.74
3336.34	0.739
3345.34	0.739
3354.35	0.739
3363.35	0.74
3372.35	0.741
3381.36	0.741
3390.36	0.741
3399.36	0.74
3408.37	0.74
3417.37	0.7394
3426.37	0.738
3435.38	0.738
3444.38	0.738
3453.38	0.738
3462.39	0.737
3471.39	0.737
3480.39	0.737
3489.4	0.737
3498.4	0.7353
3507.4	0.735
3516.41	0.7331
3525.41	0.733
3534.41	0.733
3543.42	0.733
3552.42	0.735
3561.42	0.7367
3570.42	0.738
3579.43	0.738
3588.43	0.738
3597.43	0.738
3606.44	0.7375
3615.44	0.7379
3624.44	0.737
3633.45	0.7368
3642.45	0.735
3651.45	0.735
3660.46	0.734
3669.46	0.733
3678.46	0.733
3687.47	0.7314
3696.47	0.7308
3705.47	0.73
3714.48	0.728
3723.48	0.728
3732.48	0.728
3741.49	0.728
3750.49	0.726
3759.49	0.7258
3768.5	0.725
3777.5	0.724
3786.5	0.724
3795.51	0.7225
3804.51	0.722
3813.51	0.721
3822.52	0.72
3831.52	0.7193
3840.52	0.719
3849.53	0.719
3858.53	0.719
3867.53	0.718
3876.53	0.718
3885.54	0.7179
3894.54	0.717
3903.54	0.716
3912.55	0.715
3921.55	0.7146
3930.55	0.714
3939.56	0.713
3948.56	0.712
3957.56	0.712
3966.57	0.7108
3975.57	0.7082
3984.57	0.7066
