Infrared Spectrum: 9-Hexadecyn-1-ol
Formula: C 16 H 30 O
CAS: 88109-73-3
State: gas
Origin: EPA-IR VAPOR PHASE LIBRARY
1/CM	ABSORBANCE
549.8	0.002343
559.445	0.001238
569.09	0.0031
578.734	0.0028199
588.379	0.00217799
598.024	0.0024211
607.669	0.001741
617.313	0.0022774
626.958	0.001273
636.603	0.0026737
646.248	0.0028111
655.893	0.00210529
665.537	0.0020817
675.182	0.0025527
684.827	0.003028
694.472	0.0022684
704.116	0.00335
713.761	0.00453
723.406	0.00456
733.051	0.00437
742.695	0.00371
752.34	0.00326
761.985	0.00356
771.63	0.00333
781.275	0.00309
790.919	0.0025152
800.564	0.00318
810.209	0.00355
819.854	0.001901
829.498	0.0042
839.143	0.00466
848.788	0.00363
858.433	0.00414
868.078	0.00369
877.722	0.00465
887.367	0.00436
897.012	0.0046
906.657	0.00442
916.301	0.00621
925.946	0.00561
935.591	0.00638
945.236	0.00663
954.88	0.0067
964.525	0.00686
974.17	0.00728
983.815	0.00774
993.46	0.00918
1003.1	0.01197
1012.75	0.01449
1022.39	0.0189
1032.04	0.02283
1041.68	0.02569
1051.33	0.02335
1060.97	0.0205
1070.62	0.01512
1080.26	0.01224
1089.91	0.01115
1099.55	0.00726
1109.2	0.00484
1118.84	0.00483
1128.49	0.00361
1138.13	0.00344
1147.78	0.00404
1157.42	0.00441
1167.07	0.00313
1176.71	0.0043
1186.36	0.00342
1196	0.0020538
1205.64	0.00466
1215.29	0
1224.93	0.0020572
1234.58	0.00595
1244.22	0.00565
1253.87	0.00599
1263.51	0.00702
1273.16	0.00772
1282.8	0.00753
1292.45	0.00844
1302.09	0.00889
1311.74	0.01044
1321.38	0.01279
1331.03	0.01734
1340.67	0.01502
1350.32	0.01459
1359.96	0.01271
1369.61	0.01139
1379.25	0.01157
1388.9	0.01094
1398.54	0.00866
1408.18	0.00719
1417.83	0.00715
1427.47	0.0087
1437.12	0.01552
1446.76	0.01725
1456.41	0.01845
1466.05	0.01697
1475.7	0.01143
1485.34	0.00739
1494.99	0.00503
1504.63	0.00423
1514.28	0.00383
1523.92	0.00358
1533.57	0.0028792
1543.21	0.00309
1552.86	0.0028916
1562.5	0.0026841
1572.15	0.0029151
1581.79	0.0025002
1591.44	0.0025351
1601.08	0.002623
1610.73	0.002198
1620.37	0.0022684
1630.01	0.0024249
1639.66	0.0022501
1649.3	0.0023542
1658.95	0.0021971
1668.59	0.002495
1678.24	0.00207131
1687.88	0.0022863
1697.53	0.00210127
1707.17	0.0023677
1716.82	0.0020282
1726.46	0.0022207
1736.11	0.00207441
1745.75	0.001908
1755.4	0.001881
1765.04	0.0020472
1774.69	0.0020677
1784.33	0.00215746
1793.98	0.0020582
1803.62	0.001965
1813.27	0.00210203
1822.91	0.0019834
1832.55	0.00212727
1842.2	0.0020532
1851.84	0.0021098
1861.49	0.0022221
1871.13	0.0022823
1880.78	0.0020641
1890.42	0.002033
1900.07	0.0022617
1909.71	0.0023497
1919.36	0.0022262
1929	0.0022283
1938.65	0.0026044
1948.29	0.0026382
1957.94	0.0023489
1967.58	0.0025949
1977.23	0.0025974
1986.87	0.0025771
1996.52	0.0024501
2006.16	0.0027303
2015.81	0.0026645
2025.45	0.0026093
2035.1	0.0027062
2044.74	0.0029445
2054.38	0.0028106
2064.03	0.0028389
2073.67	0.0027272
2083.32	0.0026926
2092.96	0.0028051
2102.61	0.0027088
2112.25	0.002659
2121.9	0.0027259
2131.54	0.0027341
2141.19	0.0026927
2150.83	0.0026058
2160.48	0.0027621
2170.12	0.0024984
2179.77	0.0028322
2189.41	0.002715
2199.06	0.0029638
2208.7	0.0025701
2218.35	0.0026303
2227.99	0.0026981
2237.64	0.002733
2247.28	0.0023909
2256.92	0.0025384
2266.57	0.0027146
2276.21	0.0026998
2285.86	0.0029255
2295.5	0.0028621
2305.15	0.0027981
2314.79	0.002641
2324.44	0.0024978
2334.08	0.0029141
2343.73	0.002908
2353.37	0.0029841
2363.02	0.0029827
2372.66	0.00316
2382.31	0.0026809
2391.95	0.002799
2401.6	0.0026327
2411.24	0.0030014
2420.89	0.00314
2430.53	0.0027464
2440.18	0.0026742
2449.82	0.0025848
2459.47	0.0028096
2469.11	0.0029974
2478.75	0.0029686
2488.4	0.0029384
2498.04	0.0028259
2507.69	0.00324
2517.33	0.00309
2526.98	0.00311
2536.62	0.0030526
2546.27	0.0031
2555.91	0.00371
2565.56	0.0029476
2575.2	0.00321
2584.85	0.00325
2594.49	0.00357
2604.14	0.00367
2613.78	0.0041
2623.43	0.00388
2633.07	0.00421
2642.72	0.00424
2652.36	0.00445
2662.01	0.00473
2671.65	0.00516
2681.29	0.00511
2690.94	0.00518
2700.58	0.00528
2710.23	0.00501
2719.87	0.00559
2729.52	0.0057
2739.16	0.00587
2748.81	0.0057
2758.45	0.00642
2768.1	0.00655
2777.74	0.0065
2787.39	0.00716
2797.03	0.00877
2806.68	0.01034
2816.32	0.01194
2825.97	0.01398
2835.61	0.01921
2845.26	0.03265
2854.9	0.0587
2864.55	0.08287
2874.19	0.07224
2883.84	0.06051
2893.48	0.05664
2903.12	0.06982
2912.77	0.09967
2922.41	0.14485
2932.06	0.21251
2941.7	0.21123
2951.35	0.12336
2960.99	0.07997
2970.64	0.06098
2980.28	0.03313
2989.93	0.02029
2999.57	0.01399
3009.22	0.01093
3018.86	0.00905
3028.51	0.00735
3038.15	0.00636
3047.8	0.00568
3057.44	0.00492
3067.09	0.00481
3076.73	0.00417
3086.38	0.00374
3096.02	0.00367
3105.67	0.00386
3115.31	0.00333
3124.95	0.0029165
3134.6	0.0028823
3144.24	0.00335
3153.89	0.0030749
3163.53	0.00321
3173.18	0.00353
3182.82	0.00344
3192.47	0.00334
3202.11	0.0033
3211.76	0.0026777
3221.4	0.0028993
3231.05	0.0026363
3240.69	0.0025253
3250.34	0.0030251
3259.98	0.0024067
3269.63	0.0025109
3279.27	0.002708
3288.92	0.0028805
3298.56	0.0028817
3308.21	0.0028676
3317.85	0.0024252
3327.49	0.002564
3337.14	0.0032
3346.78	0.0024871
3356.43	0.002835
3366.07	0.0025912
3375.72	0.0025213
3385.36	0.00333
3395.01	0.001881
3404.65	0.0026713
3414.3	0.0028844
3423.94	0.00313
3433.59	0.00349
3443.23	0.00339
3452.88	0.0025348
3462.52	0.0026863
3472.17	0.0028235
3481.81	0.0027929
3491.46	0.0030148
3501.1	0.0022277
3510.75	0.002423
3520.39	0.0026365
3530.04	0.00245
3539.68	0.0025641
3549.32	0.0024645
3558.97	0.0025008
3568.61	0.0028479
3578.26	0.00239
3587.9	0.0026517
3597.55	0.0027015
3607.19	0.0029188
3616.84	0.00312
3626.48	0.00412
3636.13	0.00425
3645.77	0.00562
3655.42	0.0076
3665.06	0.00872
3674.71	0.00777
3684.35	0.00584
3694	0.00368
3703.64	0.00393
3713.29	0.00374
3722.93	0.00353
3732.58	0.0030512
3742.22	0.0029007
3751.86	0.00317
3761.51	0.00311
3771.15	0.0028272
3780.8	0.0027984
3790.44	0.0030787
3800.09	0.00326
3809.73	0.0030379
3819.38	0.0027918
3829.02	0.00332
3838.67	0.00365
3848.31	0.0028758
3857.96	0.00329
3867.6	0.00311
3877.25	0.0027034
3886.89	0.0024209
3896.54	0.00347
3906.18	0.0030634
3915.83	0.0024968
3925.47	0.00334
3935.12	0.00348
3944.76	0.0021827
3954.41	0.0029152
3964.05	0.0024799
3973.69	0.00318
3983.34	0.00326
3992.98	0.0039
