Infrared Spectrum: 2-(p-Chlorophenoxy)-2-methylpropionic acid
Formula: C10 H11 Cl O3
CAS: 882-09-7
State: gas
Origin: EPA-IR VAPOR PHASE LIBRARY
1/CM	ABSORBANCE
549.8	0.01118
559.445	0.01249
569.09	0.01361
578.734	0.01674
588.379	0.0159
598.024	0.01037
607.669	0.00811
617.313	0.00671
626.958	0.00579
636.603	0.00709
646.248	0.00841
655.893	0.01135
665.537	0.01187
675.182	0.00714
684.827	0.00442
694.472	0.00394
704.116	0.00606
713.761	0.0104
723.406	0.00886
733.051	0.00636
742.695	0.00413
752.34	0.00356
761.985	0.0052
771.63	0.00564
781.275	0.00404
790.919	0.00382
800.564	0.00459
810.209	0.00584
819.854	0.01
829.498	0.01369
839.143	0.01441
848.788	0.01007
858.433	0.00532
868.078	0.0037
877.722	0.00475
887.367	0.00741
897.012	0.00671
906.657	0.00366
916.301	0.00322
925.946	0.00439
935.591	0.00604
945.236	0.00808
954.88	0.01212
964.525	0.01273
974.17	0.00725
983.815	0.0042
993.46	0.00351
1003.1	0.00579
1012.75	0.01326
1022.39	0.00431
1032.04	0.00322
1041.68	0.00402
1051.33	0.00487
1060.97	0.00733
1070.62	0.01302
1080.26	0.02803
1089.91	0.05906
1099.55	0.0682
1109.2	0.05708
1118.84	0.05125
1128.49	0.03925
1138.13	0.03135
1147.78	0.03375
1157.42	0.04704
1167.07	0.05213
1176.71	0.03668
1186.36	0.02498
1196	0.02169
1205.64	0.02459
1215.29	0.03682
1224.93	0.05744
1234.58	0.0663
1244.22	0.03364
1253.87	0.02009
1263.51	0.01682
1273.16	0.0142
1282.8	0.0123
1292.45	0.01065
1302.09	0.01098
1311.74	0.01238
1321.38	0.01448
1331.03	0.0154
1340.67	0.01547
1350.32	0.01507
1359.96	0.01444
1369.61	0.01422
1379.25	0.01404
1388.9	0.01779
1398.54	0.01205
1408.18	0.00692
1417.83	0.00623
1427.47	0.00625
1437.12	0.00652
1446.76	0.0072
1456.41	0.00917
1466.05	0.01359
1475.7	0.02855
1485.34	0.08529
1494.99	0.06843
1504.63	0.01768
1514.28	0.00895
1523.92	0.00608
1533.57	0.00425
1543.21	0.00327
1552.86	0.00288
1562.5	0.00302
1572.15	0.0041
1581.79	0.00721
1591.44	0.0094
1601.08	0.00654
1610.73	0.0042
1620.37	0.00277
1630.01	0.00229
1639.66	0.00198
1649.3	0.00196
1658.95	0.00177
1668.59	0.00161
1678.24	0.00163
1687.88	0.00189
1697.53	0.0025
1707.17	0.00332
1716.82	0.00442
1726.46	0.00631
1736.11	0.0095
1745.75	0.01589
1755.4	0.02763
1765.04	0.04262
1774.69	0.04786
1784.33	0.04172
1793.98	0.04172
1803.62	0.04114
1813.27	0.01527
1822.91	0.00682
1832.55	0.00422
1842.2	0.0031
1851.84	0.00273
1861.49	0.0024
1871.13	0.00249
1880.78	0.00243
1890.42	0.00194
1900.07	0.00133
1909.71	0.0011555
1919.36	0.0009916
1929	0.0008487
1938.65	0.0009814
1948.29	0.0008036
1957.94	0.0007711
1967.58	0.0007833
1977.23	0.0007262
1986.87	0.0006498
1996.52	0.0006471
2006.16	0.0008322
2015.81	0.0009101
2025.45	0.0009565
2035.1	0.000838
2044.74	0.0007631
2054.38	0.0006607
2064.03	0.0007412
2073.67	0.0008101
2083.32	0.0007353
2092.96	0.0006323
2102.61	0.0007125
2112.25	0.0006595
2121.9	0.0005709
2131.54	0.0005267
2141.19	0.0004497
2150.83	0.0004451
2160.48	0.0004642
2170.12	0.0005968
2179.77	0.0006362
2189.41	0.0006561
2199.06	0.000565
2208.7	0.0005555
2218.35	0.0006126
2227.99	0.0004541
2237.64	0.0004856
2247.28	0.0005067
2256.92	0.0006131
2266.57	0.0005817
2276.21	0.0005235
2285.86	0.0006859
2295.5	0.0006612
2305.15	0.0007281
2314.79	0.000824
2324.44	0.0008248
2334.08	0.0007547
2343.73	0.00073
2353.37	0.000804
2363.02	0.0009253
2372.66	0.0009485
2382.31	0.000797
2391.95	0.0007751
2401.6	0.0007083
2411.24	0.0006585
2420.89	0.0007128
2430.53	0.0009024
2440.18	0.0010641
2449.82	0.0009757
2459.47	0.0008929
2469.11	0.0007681
2478.75	0.0007532
2488.4	0.0006323
2498.04	0.0005759
2507.69	0.0005859
2517.33	0.000481
2526.98	0.000386
2536.62	0.000304
2546.27	0.0004257
2555.91	0.0003804
2565.56	0.0005186
2575.2	0.0004077
2584.85	0.0004912
2594.49	0.0003781
2604.14	0.0003243
2613.78	0.00023223
2623.43	0.00020152
2633.07	0.0002883
2642.72	0.00025671
2652.36	0.000301
2662.01	0.0003136
2671.65	0.00025189
2681.29	0.00021475
2690.94	0.00025284
2700.58	0.0003456
2710.23	0.0003065
2719.87	0.0003182
2729.52	0.0002976
2739.16	0.0004311
2748.81	0.0003205
2758.45	0.0002814
2768.1	0.00025874
2777.74	0.0003207
2787.39	0.0003377
2797.03	0.0004728
2806.68	0.0005864
2816.32	0.0007327
2825.97	0.0005608
2835.61	0.0006941
2845.26	0.0007186
2854.9	0.000827
2864.55	0.00125
2874.19	0.00193
2883.84	0.00209
2893.48	0.00213
2903.12	0.00202
2912.77	0.00214
2922.41	0.00242
2932.06	0.00344
2941.7	0.00591
2951.35	0.00674
2960.99	0.0046
2970.64	0.00369
2980.28	0.00508
2989.93	0.01055
2999.57	0.01547
3009.22	0.01103
3018.86	0.00474
3028.51	0.00255
3038.15	0.00246
3047.8	0.0024
3057.44	0.00169
3067.09	0.0016
3076.73	0.00171
3086.38	0.00211
3096.02	0.00225
3105.67	0.00195
3115.31	0.0011033
3124.95	0.0007906
3134.6	0.0006892
3144.24	0.0004195
3153.89	0.0005226
3163.53	0.0004939
3173.18	0.0004794
3182.82	0.0005798
3192.47	0.0003671
3202.11	0.0004036
3211.76	0.0003546
3221.4	0.0004314
3231.05	0.00025195
3240.69	0.0003213
3250.34	0.0003003
3259.98	0.0004221
3269.63	0.0004975
3279.27	0.000445
3288.92	0.0004308
3298.56	0.0003119
3308.21	0.0003715
3317.85	0.0004919
3327.49	0.0004941
3337.14	0.0004385
3346.78	0.0004961
3356.43	0.00022662
3366.07	0.0004844
3375.72	0.0003933
3385.36	0.000552
3395.01	0.0006274
3404.65	0.0005079
3414.3	0.0005076
3423.94	0.0006882
3433.59	0.0008811
3443.23	0.0009972
3452.88	0.00151
3462.52	0.00267
3472.17	0.00481
3481.81	0.00649
3491.46	0.00636
3501.1	0.00549
3510.75	0.00435
3520.39	0.00371
3530.04	0.0034
3539.68	0.00315
3549.32	0.00432
3558.97	0.01015
3568.61	0.02337
3578.26	0.01801
3587.9	0.00587
3597.55	0.00213
3607.19	0.00119
3616.84	0.0007851
3626.48	0.000885
3636.13	0.0008902
3645.77	0.00224
3655.42	0.00225
3665.06	0.00131
3674.71	0.0005633
3684.35	0.000427
3694	0.0003521
3703.64	1.3e-05
3713.29	0.0003565
3722.93	0.0003243
3732.58	0.00025891
3742.22	0.0003231
3751.86	0.0004699
3761.51	0.0003151
3771.15	0.000178744
3780.8	0.0004007
3790.44	0.00021055
3800.09	0.00016049
3809.73	0.0003297
3819.38	0.00026617
3829.02	0.00017703
3838.67	0.0003267
3848.31	0.00022691
3857.96	0.0004856
3867.6	0.00024084
3877.25	0.0005252
3886.89	0.0003893
3896.54	0.0004466
3906.18	0.00022764
3915.83	0.0004221
3925.47	0.00025515
3935.12	0.0001251
3944.76	0.00018233
3954.41	0.00025035
3964.05	2.6e-05
3973.69	0.000144
3983.34	0.00019728
3992.98	0.0002967
