Infrared Spectrum: PHENETHYLAMINE, Alpha-METHYL-4-(TRIFLUOROMETHYL)-, HYDROCHLORIDE
Formula: C10 H13 Cl F3 N
CAS: 882-00-8
State: SOLID (KBr DISC)
Class: COBLENTZ III
Instrument: PERKIN-ELMER 21 (GRATING)
Instrument parameters: NaCl PRISM
Sampling: TRANSMISSION
Resolution: 2
Origin: SMITH KLINE & FRENCH LABS.
MICROMETERS	TRANSMITTANCE
1.993	0.436
2.0272	0.44
2.06141	0.442
2.09561	0.45
2.12982	0.447
2.16402	0.46
2.19823	0.456
2.23243	0.468
2.26664	0.468
2.30084	0.47
2.33504	0.47
2.36925	0.492
2.40345	0.485
2.43766	0.482
2.47186	0.489
2.50607	0.498
2.54027	0.496
2.57448	0.492
2.60868	0.498
2.64288	0.496
2.67709	0.494
2.71129	0.494
2.7455	0.485
2.7797	0.461
2.81391	0.409
2.84811	0.399
2.88232	0.378
2.91652	0.362
2.95072	0.358
2.98493	0.4
3.01913	0.421
3.05334	0.422
3.08754	0.422
3.12175	0.392
3.15595	0.384
3.19015	0.358
3.22436	0.288
3.25856	0.26
3.29277	0.213
3.32697	0.179
3.36118	0.126
3.39538	0.121
3.42959	0.12
3.46379	0.127
3.49799	0.161
3.5322	0.261
3.5664	0.286
3.60061	0.336
3.63481	0.41
3.66902	0.39
3.70322	0.44
3.73743	0.459
3.77163	0.534
3.80583	0.504
3.84004	0.467
3.87424	0.482
3.90845	0.583
3.94265	0.616
3.97686	0.542
4.01106	0.481
4.04527	0.601
4.07947	0.638
4.11367	0.649
4.14788	0.658
4.18208	0.666
4.21629	0.673
4.25049	0.676
4.2847	0.663
4.3189	0.662
4.35311	0.672
4.38731	0.683
4.42151	0.674
4.45572	0.674
4.48992	0.684
4.52413	0.683
4.55833	0.683
4.59254	0.68
4.62674	0.689
4.66095	0.691
4.69515	0.689
4.72935	0.679
4.76356	0.682
4.79776	0.665
4.83197	0.65
4.86617	0.652
4.90038	0.629
4.93458	0.59
4.96879	0.576
5.00299	0.556
5.03719	0.601
5.0714	0.627
5.1056	0.649
5.13981	0.669
5.17401	0.65
5.20822	0.689
5.24242	0.695
5.27663	0.694
5.31083	0.702
5.34503	0.704
5.37924	0.707
5.41344	0.71
5.44765	0.7
5.48185	0.688
5.51606	0.69
5.55026	0.706
5.58446	0.699
5.61867	0.699
5.65287	0.695
5.68708	0.694
5.72128	0.683
5.75549	0.69
5.78969	0.68
5.8239	0.685
5.8581	0.672
5.8923	0.671
5.92651	0.668
5.96071	0.643
5.99492	0.634
6.02912	0.621
6.06333	0.61
6.09753	0.57
6.13174	0.492
6.16594	0.382
6.20014	0.453
6.23435	0.505
6.26855	0.431
6.30276	0.39
6.33696	0.529
6.37117	0.611
6.40537	0.63
6.43958	0.638
6.47378	0.644
6.50798	0.632
6.54219	0.613
6.57639	0.57
6.6106	0.389
6.6448	0.239
6.67901	0.393
6.71321	0.534
6.74742	0.612
6.78162	0.61
6.81582	0.576
6.85003	0.482
6.88423	0.573
6.91844	0.593
6.95264	0.604
6.98685	0.57
7.02105	0.45
7.05526	0.422
7.08946	0.521
7.12366	0.549
7.15787	0.511
7.19207	0.521
7.22628	0.601
7.26048	0.591
7.29469	0.52
7.32889	0.485
7.3631	0.453
7.3973	0.44
7.4315	0.344
7.46571	0.21
7.49991	0.123
7.53412	0.123
7.56832	0.105
7.60253	0.147
7.63673	0.315
7.67094	0.422
7.70514	0.5
7.73934	0.582
7.77355	0.64
7.80775	0.665
7.84196	0.672
7.87616	0.679
7.91037	0.68
7.94457	0.678
7.97877	0.652
8.01298	0.654
8.04718	0.649
8.08139	0.627
8.11559	0.658
8.1498	0.679
8.184	0.658
8.21821	0.634
8.25241	0.601
8.28661	0.539
8.32082	0.46
8.35502	0.475
8.38923	0.443
8.42343	0.333
8.45764	0.289
8.49184	0.219
8.52605	0.221
8.56025	0.271
8.59445	0.303
8.62866	0.276
8.66286	0.27
8.69707	0.382
8.73127	0.416
8.76548	0.38
8.79968	0.3
8.83389	0.243
8.86809	0.213
8.90229	0.123
8.9365	0.114
8.9707	0.095
9.00491	0.12
9.03911	0.19
9.07332	0.31
9.10752	0.42
9.14173	0.451
9.17593	0.5
9.21013	0.52
9.24434	0.462
9.27854	0.489
9.31275	0.415
9.34695	0.209
9.38116	0.161
9.41536	0.2
9.44957	0.38
9.48377	0.471
9.51797	0.559
9.55218	0.612
9.58638	0.637
9.62059	0.662
9.65479	0.672
9.689	0.673
9.7232	0.68
9.75741	0.685
9.79161	0.632
9.82581	0.404
9.86002	0.375
9.89422	0.361
9.92843	0.511
9.96263	0.601
9.99684	0.598
10.031	0.593
10.0652	0.595
10.0994	0.652
10.1337	0.678
10.1679	0.702
10.2021	0.714
10.2363	0.714
10.2705	0.713
10.3047	0.73
10.3389	0.729
10.3731	0.723
10.4073	0.679
10.4415	0.708
10.4757	0.733
10.5099	0.739
10.5441	0.739
10.5783	0.741
10.6125	0.745
10.6467	0.75
10.6809	0.742
10.7151	0.742
10.7493	0.722
10.7835	0.735
10.8177	0.746
10.8519	0.751
10.8862	0.751
10.9204	0.75
10.9546	0.755
10.9888	0.747
11.023	0.749
11.0572	0.757
11.0914	0.752
11.1256	0.758
11.1598	0.752
11.194	0.751
11.2282	0.742
11.2624	0.733
11.2966	0.733
11.3308	0.74
11.365	0.742
11.3992	0.74
11.4334	0.728
11.4676	0.723
11.5018	0.704
11.536	0.669
11.5702	0.589
11.6044	0.36
11.6386	0.254
11.6729	0.401
11.7071	0.54
11.7413	0.661
11.7755	0.7
11.8097	0.711
11.8439	0.722
11.8781	0.729
11.9123	0.736
11.9465	0.723
11.9807	0.719
12.0149	0.704
12.0491	0.721
12.0833	0.725
12.1175	0.711
12.1517	0.693
12.1859	0.64
12.2201	0.537
12.2543	0.38
12.2885	0.303
12.3227	0.364
12.3569	0.44
12.3911	0.511
12.4254	0.61
12.4596	0.669
12.4938	0.701
12.528	0.722
12.5622	0.746
12.5964	0.746
12.6306	0.751
12.6648	0.75
12.699	0.756
12.7332	0.768
12.7674	0.747
12.8016	0.76
12.8358	0.768
12.87	0.778
12.9042	0.772
12.9384	0.773
12.9726	0.766
13.0068	0.769
13.041	0.762
13.0752	0.751
13.1094	0.739
13.1436	0.699
13.1778	0.652
13.2121	0.697
13.2463	0.732
13.2805	0.751
13.3147	0.76
13.3489	0.764
13.3831	0.761
13.4173	0.763
13.4515	0.76
13.4857	0.757
13.5199	0.764
13.5541	0.76
13.5883	0.733
13.6225	0.651
13.6567	0.661
13.6909	0.721
13.7251	0.734
13.7593	0.739
13.7935	0.751
13.8277	0.755
13.8619	0.752
13.8961	0.752
13.9303	0.752
13.9645	0.75
13.9988	0.751
14.033	0.755
14.0672	0.756
14.1014	0.76
14.1356	0.758
14.1698	0.747
14.204	0.751
14.2382	0.75
14.2724	0.756
14.3066	0.746
14.3408	0.746
14.375	0.75
14.4092	0.742
14.4434	0.732
14.4776	0.746
14.5118	0.734
14.546	0.744
14.5802	0.73
14.6144	0.73
14.6486	0.73
14.6828	0.73
14.717	0.73
14.7513	0.722
14.7855	0.721
14.8197	0.727
14.8539	0.717
14.8881	0.713
14.9223	0.716
14.9565	0.71
14.9907	0.688
15.0249	0.683
15.0591	0.705
15.0933	0.705
15.1275	0.706
15.1617	0.701
15.1959	0.695
15.2301	0.686
