Infrared Spectrum: 3-Nitro-.omega.-nitrostyrene
Formula: C 8 H 6 N 2 O 4
CAS: 882-26-8
State: gas
Origin: EPA-IR VAPOR PHASE LIBRARY
1/CM	ABSORBANCE
549.8	0.0043
559.445	0.00302
569.09	0.00375
578.734	0.00329
588.379	0.00621
598.024	0.0044
607.669	0.00347
617.313	0.0016156
626.958	0.001246
636.603	0.00253
646.248	0.0019084
655.893	0.0029
665.537	0.00484
675.182	0.00632
684.827	0.00549
694.472	0.00388
704.116	0.00391
713.761	0.0039
723.406	0.0048
733.051	0.00634
742.695	0.00452
752.34	0.00416
761.985	0.00282
771.63	0.00243
781.275	0.00303
790.919	0.00402
800.564	0.00435
810.209	0.00441
819.854	0.00497
829.498	0.00898
839.143	0.00569
848.788	0.0041
858.433	0.00247
868.078	0.00317
877.722	0.00243
887.367	0.0032
897.012	0.0024022
906.657	0.00285
916.301	0.00339
925.946	0.00413
935.591	0.00475
945.236	0.00529
954.88	0.00836
964.525	0.00892
974.17	0.0049
983.815	0.0022767
993.46	0.00306
1003.1	0.0020595
1012.75	0.001138
1022.39	0.00257
1032.04	0.0021155
1041.68	0.0017963
1051.33	0.00261
1060.97	0.00361
1070.62	0.00364
1080.26	0.00416
1089.91	0.00556
1099.55	0.00484
1109.2	0.00488
1118.84	0.00275
1128.49	0.00415
1138.13	0.001865
1147.78	0.00311
1157.42	0.00264
1167.07	0.00466
1176.71	0.0021333
1186.36	0.0042
1196	0.00423
1205.64	0.00343
1215.29	0.0023203
1224.93	0.00245
1234.58	0.0020284
1244.22	0.00334
1253.87	0.00483
1263.51	0.0023812
1273.16	0.0031
1282.8	0.00339
1292.45	0.00388
1302.09	0.00431
1311.74	0.00589
1321.38	0.00814
1331.03	0.01362
1340.67	0.02861
1350.32	0.04311
1359.96	0.03167
1369.61	0.01342
1379.25	0.00568
1388.9	0.00367
1398.54	0.00351
1408.18	0.00285
1417.83	0.00276
1427.47	0.00308
1437.12	0.00411
1446.76	0.00323
1456.41	0.00293
1466.05	0.00338
1475.7	0.00458
1485.34	0.00475
1494.99	0.0054
1504.63	0.00711
1514.28	0.00945
1523.92	0.01337
1533.57	0.02247
1543.21	0.04211
1552.86	0.0452
1562.5	0.0272
1572.15	0.01625
1581.79	0.0118
1591.44	0.00787
1601.08	0.00559
1610.73	0.00471
1620.37	0.00451
1630.01	0.00368
1639.66	0.0046
1649.3	0.00527
1658.95	0.00332
1668.59	0.002323
1678.24	0.0020502
1687.88	0.0018424
1697.53	0.0019211
1707.17	0.0019249
1716.82	0.0022905
1726.46	0.0022551
1736.11	0.0017824
1745.75	0.0021059
1755.4	0.0019979
1765.04	0.0016413
1774.69	0.0018
1784.33	0.001808
1793.98	0.0020867
1803.62	0.0020584
1813.27	0.0018443
1822.91	0.0019161
1832.55	0.0017218
1842.2	0.0018088
1851.84	0.0017083
1861.49	0.0017587
1871.13	0.0019103
1880.78	0.0016433
1890.42	0.0021521
1900.07	0.0019279
1909.71	0.0018699
1919.36	0.0018496
1929	0.0019445
1938.65	0.0016071
1948.29	0.0018064
1957.94	0.001865
1967.58	0.0017743
1977.23	0.0015489
1986.87	0.0017308
1996.52	0.001307
2006.16	0.0018585
2015.81	0.001646
2025.45	0.001274
2035.1	0.0015417
2044.74	0.0017221
2054.38	0.00157
2064.03	0.0017859
2073.67	0.0015311
2083.32	0.0015529
2092.96	0.00146527
2102.61	0.0015535
2112.25	0.00150008
2121.9	0.00144506
2131.54	0.00150196
2141.19	0.0016602
2150.83	0.0016827
2160.48	0.0016644
2170.12	0.001283
2179.77	0.001562
2189.41	0.0015896
2199.06	0.001168
2208.7	0.0015719
2218.35	0.0013996
2227.99	0.00144299
2237.64	0.0017234
2247.28	0.0013466
2256.92	0.001204
2266.57	0.0013954
2276.21	0.0016376
2285.86	0.0017756
2295.5	0.0016489
2305.15	0.001288
2314.79	0.001377
2324.44	0.00148452
2334.08	0.00145088
2343.73	0.001293
2353.37	0.0016091
2363.02	0.001538
2372.66	0.001317
2382.31	0.0016955
2391.95	0.00151141
2401.6	0.0014067
2411.24	0.0016553
2420.89	0.0014184
2430.53	0.0016816
2440.18	0.0014074
2449.82	0.001567
2459.47	0.0016754
2469.11	0.0015313
2478.75	0.00151058
2488.4	0.0016076
2498.04	0.001258
2507.69	0.001219
2517.33	0.0015381
2526.98	0.001581
2536.62	0.00145377
2546.27	0.0015646
2555.91	0.001224
2565.56	0.001731
2575.2	0.00147962
2584.85	0.0015602
2594.49	0.0015288
2604.14	0.00145509
2613.78	0.0016509
2623.43	0.0018458
2633.07	0.0015599
2642.72	0.0017102
2652.36	0.00149155
2662.01	0.00142002
2671.65	0.0018818
2681.29	0.0021245
2690.94	0.00150991
2700.58	0.0016746
2710.23	0.0019239
2719.87	0.0016053
2729.52	0.001306
2739.16	0.0015462
2748.81	0.0016141
2758.45	0.001755
2768.1	0.001178
2777.74	0.0015493
2787.39	0.0013993
2797.03	0.001183
2806.68	0.001286
2816.32	0.0017216
2825.97	0.001289
2835.61	0.00145432
2845.26	0.0016723
2854.9	0.00257
2864.55	0.0020502
2874.19	0.0019525
2883.84	0.0023064
2893.48	0.00269
2903.12	0.0020953
2912.77	0.0020535
2922.41	0.0016113
2932.06	0.0017437
2941.7	0.0017866
2951.35	0.001364
2960.99	0.0017717
2970.64	0.001277
2980.28	0.0017618
2989.93	0.0013644
2999.57	0.0018851
3009.22	0.001594
3018.86	0.0018534
3028.51	0.0013231
3038.15	0.0018068
3047.8	0.0018625
3057.44	0.0017379
3067.09	0.0016549
3076.73	0.00275
3086.38	0.0027
3096.02	0.00295
3105.67	0.00244
3115.31	0.00255
3124.95	0.0020909
3134.6	0.001148
3144.24	0.001092
3153.89	0.00150827
3163.53	0.00146653
3173.18	0.001235
3182.82	0.0013877
3192.47	0.001158
3202.11	0.0015627
3211.76	0.001177
3221.4	0.0016134
3231.05	0.0015574
3240.69	0.0014034
3250.34	0.0014075
3259.98	0.0022021
3269.63	0.0018718
3279.27	0.0021475
3288.92	0.0015762
3298.56	0.0016757
3308.21	0.0017599
3317.85	0.001296
3327.49	0.0018208
3337.14	0.001534
3346.78	0.0015329
3356.43	0.001277
3366.07	0.0015534
3375.72	0.001169
3385.36	0.001071
3395.01	0.0016722
3404.65	0.0015745
3414.3	0.00141197
3423.94	0.00242
3433.59	0.00144302
3443.23	0.001109
3452.88	0.0013568
3462.52	0.001263
3472.17	0.0016123
3481.81	0.0017299
3491.46	0.0013307
3501.1	0.0018599
3510.75	0.0018426
3520.39	0.0016683
3530.04	0.001259
3539.68	0.0019779
3549.32	0.0020189
3558.97	0.0016657
3568.61	0.00111
3578.26	0.0019633
3587.9	0.00251
3597.55	0.0013698
3607.19	0.001233
3616.84	0.001273
3626.48	0.0015237
3636.13	0.00143529
3645.77	0.0015716
3655.42	0.001091
3665.06	0.0013
3674.71	0.00095
3684.35	0.0018175
3694	0.0021687
3703.64	0.0015496
3713.29	0.0015858
3722.93	0.00245
3732.58	0.001678
3742.22	0.001004
3751.86	0.0021204
3761.51	0.0016738
3771.15	0.002122
3780.8	0.0017633
3790.44	0.0020051
3800.09	0.0016671
3809.73	0.001278
3819.38	0.001026
3829.02	0.0018806
3838.67	0.0021838
3848.31	0.0014069
3857.96	0.001253
3867.6	0.0022228
3877.25	0.00143257
3886.89	0.0016507
3896.54	0.0022013
3906.18	0.0016161
3915.83	0.0019869
3925.47	0.0019567
3935.12	0.0021574
3944.76	0.0020397
3954.41	0.000942
3964.05	0.00142573
3973.69	0.0016068
3983.34	0.00142387
3992.98	0.0020867
