Infrared Spectrum: 1,3-PROPANEDIOL, 2,2-DIMETHYL-, CYCLIC PHENYL PHOSPHONATE
Formula: C11 H15 O3 P
CAS: 882-69-9
State: SOLID (KBr PELLET)
Melting point: 103-105 C
Class: COBLENTZ
Instrument: Not specified, most likely a prism, grating, or hybrid spectrometer.
Sampling: TRANSMISSION
Resolution: 4
Origin: TENNESSEE EASTMAN COMPANY, RESEARCH LABORATORIES
MICROMETERS	TRANSMITTANCE
2.033	0.483
2.07302	0.501
2.11305	0.516
2.15307	0.528
2.1931	0.55
2.23312	0.558
2.27315	0.571
2.31317	0.588
2.3532	0.598
2.39322	0.608
2.43325	0.622
2.47327	0.635
2.5133	0.653
2.55332	0.658
2.59335	0.663
2.63337	0.678
2.6734	0.692
2.71342	0.705
2.75345	0.71
2.79347	0.704
2.8335	0.695
2.87352	0.68
2.91355	0.677
2.95357	0.688
2.9936	0.709
3.03362	0.752
3.07365	0.765
3.11367	0.785
3.1537	0.801
3.19372	0.811
3.23375	0.819
3.27377	0.792
3.3138	0.816
3.35382	0.633
3.39385	0.637
3.43387	0.717
3.4739	0.757
3.51392	0.877
3.55395	0.904
3.59397	0.924
3.634	0.931
3.67402	0.933
3.71405	0.943
3.75407	0.949
3.7941	0.948
3.83412	0.951
3.87415	0.954
3.91417	0.953
3.9542	0.951
3.99422	0.951
4.03425	0.953
4.07427	0.954
4.1143	0.954
4.15432	0.953
4.19435	0.953
4.23437	0.948
4.2744	0.936
4.31442	0.928
4.35445	0.948
4.39447	0.953
4.4345	0.949
4.47452	0.954
4.51455	0.951
4.55457	0.951
4.5946	0.954
4.63462	0.958
4.67465	0.963
4.71467	0.969
4.7547	0.973
4.79472	0.978
4.83474	0.981
4.87477	0.983
4.91479	0.984
4.95482	0.971
4.99484	0.979
5.03487	0.984
5.07489	0.991
5.11492	0.993
5.15494	0.993
5.19497	0.978
5.23499	0.991
5.27502	0.998
5.31504	1.005
5.35507	1.005
5.39509	0.996
5.43512	0.978
5.47514	0.988
5.51517	0.963
5.55519	0.974
5.59522	0.988
5.63524	0.996
5.67527	1
5.71529	0.994
5.75532	0.981
5.79534	0.986
5.83537	0.966
5.87539	0.951
5.91542	0.956
5.95544	0.958
5.99547	0.958
6.03549	0.964
6.07552	0.946
6.11554	0.951
6.15557	0.939
6.19559	0.951
6.23562	0.976
6.27564	0.857
6.31567	0.991
6.35569	0.946
6.39572	0.953
6.43574	0.954
6.47577	0.936
6.51579	0.949
6.55582	0.928
6.59584	0.939
6.63587	0.933
6.67589	0.904
6.71592	0.588
6.75594	0.627
6.79597	0.51
6.83599	0.702
6.87602	0.79
6.91604	0.571
6.95607	0.795
6.99609	0.854
7.03612	0.851
7.07614	0.809
7.11617	0.772
7.15619	0.797
7.19622	0.844
7.23624	0.826
7.27627	0.63
7.31629	0.725
7.35632	0.797
7.39634	0.782
7.43637	0.839
7.47639	0.841
7.51642	0.836
7.55644	0.752
7.59647	0.71
7.63649	0.698
7.67651	0.789
7.71654	0.767
7.75656	0.672
7.79659	0.428
7.83661	0.046
7.87664	0.061
7.91666	0.086
7.95669	0.322
7.99671	0.56
8.03674	0.69
8.07676	0.724
8.11679	0.712
8.15681	0.672
8.19684	0.65
8.23686	0.657
8.27689	0.638
8.31691	0.747
8.35694	0.777
8.39696	0.749
8.43699	0.665
8.47701	0.69
8.51704	0.774
8.55706	0.71
8.59709	0.755
8.63711	0.782
8.67714	0.76
8.71716	0.667
8.75719	0.399
8.79721	0.13
8.83724	0.316
8.87726	0.642
8.91729	0.717
8.95731	0.734
8.99734	0.722
9.03736	0.693
9.07739	0.709
9.11741	0.715
9.15744	0.675
9.19746	0.588
9.23749	0.336
9.27751	0.105
9.31754	0.046
9.35756	0.112
9.39759	0.347
9.43761	0.409
9.47764	0.436
9.51766	0.566
9.55769	0.637
9.59771	0.655
9.63774	0.662
9.67776	0.662
9.71779	0.623
9.75781	0.561
9.79784	0.337
9.83786	0.1
9.87789	0.182
9.91791	0.399
9.95794	0.573
9.99796	0.513
10.038	0.578
10.078	0.561
10.118	0.364
10.1581	0.214
10.1981	0.384
10.2381	0.58
10.2781	0.698
10.3182	0.742
10.3582	0.762
10.3982	0.76
10.4382	0.692
10.4783	0.724
10.5183	0.692
10.5583	0.483
10.5983	0.53
10.6384	0.705
10.6784	0.812
10.7184	0.854
10.7584	0.861
10.7985	0.862
10.8385	0.842
10.8785	0.79
10.9185	0.583
10.9586	0.655
10.9986	0.836
11.0386	0.892
11.0786	0.914
11.1187	0.921
11.1587	0.924
11.1987	0.923
11.2387	0.921
11.2788	0.921
11.3188	0.923
11.3588	0.924
11.3988	0.926
11.4389	0.924
11.4789	0.909
11.5189	0.886
11.5589	0.879
11.599	0.884
11.639	0.886
11.679	0.879
11.719	0.854
11.7591	0.821
11.7991	0.76
11.8391	0.635
11.8791	0.413
11.9192	0.188
11.9592	0.127
11.9992	0.195
12.0392	0.331
12.0793	0.479
12.1193	0.598
12.1593	0.672
12.1993	0.683
12.2394	0.68
12.2794	0.683
12.3194	0.683
12.3594	0.645
12.3995	0.561
12.4395	0.346
12.4795	0.143
12.5195	0.081
12.5596	0.128
12.5996	0.297
12.6396	0.469
12.6796	0.596
12.7197	0.685
12.7597	0.765
12.7997	0.834
12.8397	0.861
12.8798	0.869
12.9198	0.844
12.9598	0.687
12.9998	0.423
13.0399	0.232
13.0799	0.382
13.1199	0.576
13.1599	0.724
13.2	0.79
13.24	0.822
13.28	0.849
13.32	0.867
13.3601	0.897
13.4001	0.923
13.4401	0.939
13.4801	0.946
13.5202	0.951
13.5602	0.953
13.6002	0.959
13.6402	0.961
13.6803	0.963
13.7203	0.968
13.7603	0.968
13.8003	0.968
13.8404	0.954
13.8804	0.946
13.9204	0.936
13.9604	0.918
14.0005	0.887
14.0405	0.804
14.0805	0.658
14.1205	0.469
14.1606	0.377
14.2006	0.489
14.2406	0.652
14.2806	0.717
14.3207	0.719
14.3607	0.68
14.4007	0.712
14.4407	0.785
14.4808	0.861
14.5208	0.899
14.5608	0.924
14.6008	0.943
14.6409	0.948
14.6809	0.949
14.7209	0.949
14.7609	0.948
14.801	0.946
14.841	0.943
14.881	0.939
14.921	0.924
14.9611	0.887
15.0011	0.864
15.0411	0.874
15.0811	0.899
15.1212	0.896
15.1612	0.889
15.2012	0.871
15.2412	0.851
15.2813	0.837
15.3213	0.831
15.3613	0.812
15.4013	0.795
15.4414	0.777
15.4814	0.769
15.5214	0.757
15.5614	0.747
15.6015	0.737
15.6415	0.717
15.6815	0.709
15.7215	0.693
15.7616	0.675
15.8016	0.662
15.8416	0.648
15.8816	0.637
15.9217	0.618
15.9617	0.608
16.0017	0.603
