Infrared Spectrum: RIBOFURANOSE, 1-AZIDO-1-DEOXY-2,3-O-ISOPROPYLIDENE-, BENZOATE
Formula: C15 H17 N3 O5
CAS: 88237-98-3
State: LIQUID (NEAT)
Class: COBLENTZ III
Instrument: PERKIN-ELMER 521 (GRATING)
Instrument parameters: FILTER CHANGE AT 3130, 2475, 2000, 1150, 700, 410 CM^-^1, GRATING CHANGES AT 2000, 630 CM^-^1
Sampling: TRANSMISSION
Path length: CAPILLARY
Resolution: 4
Origin: SOUTHERN RESEARCH INST.
1/CM	TRANSMITTANCE
251.326	0.711
260.34	0.726
269.354	0.779
278.367	0.808
287.381	0.834
296.395	0.843
305.409	0.847
314.423	0.845
323.436	0.863
332.45	0.873
341.464	0.877
350.478	0.881
359.491	0.883
368.505	0.884
377.519	0.89
386.533	0.891
395.547	0.887
404.56	0.883
413.574	0.882
422.588	0.886
431.602	0.89
440.616	0.895
449.629	0.898
458.643	0.897
467.657	0.893
476.671	0.887
485.685	0.873
494.698	0.848
503.712	0.793
512.726	0.741
521.74	0.845
530.753	0.849
539.767	0.847
548.781	0.841
557.795	0.814
566.809	0.753
575.822	0.863
584.836	0.898
593.85	0.896
602.864	0.879
611.878	0.871
620.891	0.864
629.905	0.859
638.919	0.854
647.933	0.847
656.947	0.836
665.96	0.806
674.974	0.752
683.988	0.683
693.002	0.711
702.015	0.55
711.029	0.347
720.043	0.435
729.057	0.82
738.071	0.837
747.084	0.821
756.098	0.796
765.112	0.79
774.126	0.838
783.14	0.849
792.153	0.827
801.167	0.771
810.181	0.765
819.195	0.773
828.209	0.771
837.222	0.747
846.236	0.669
855.25	0.568
864.264	0.456
873.277	0.415
882.291	0.71
891.305	0.751
900.319	0.763
909.333	0.694
918.346	0.576
927.36	0.516
936.374	0.466
945.388	0.572
954.402	0.628
963.415	0.611
972.429	0.584
981.443	0.614
990.457	0.613
999.471	0.627
1008.48	0.58
1017.5	0.576
1026.51	0.399
1035.53	0.685
1044.54	0.533
1053.55	0.423
1062.57	0.327
1071.58	0.254
1080.59	0.29
1089.61	0.228
1098.62	0.213
1107.64	0.324
1116.65	0.399
1125.66	0.405
1134.68	0.509
1143.69	0.61
1152.7	0.531
1161.72	0.434
1170.73	0.56
1179.75	0.59
1188.76	0.639
1197.77	0.554
1206.79	0.351
1215.8	0.348
1224.82	0.331
1233.83	0.277
1242.84	0.287
1251.86	0.283
1260.87	0.254
1269.88	0.201
1278.9	0.201
1287.91	0.364
1296.93	0.51
1305.94	0.602
1314.95	0.548
1323.97	0.654
1332.98	0.712
1341.99	0.691
1351.01	0.648
1360.02	0.634
1369.04	0.56
1378.05	0.423
1387.06	0.417
1396.08	0.66
1405.09	0.763
1414.1	0.814
1423.12	0.811
1432.13	0.793
1441.15	0.757
1450.16	0.583
1459.17	0.492
1468.19	0.753
1477.2	0.825
1486.22	0.838
1495.23	0.788
1504.24	0.865
1513.26	0.867
1522.27	0.867
1531.28	0.867
1540.3	0.866
1549.31	0.865
1558.33	0.861
1567.34	0.854
1576.35	0.838
1585.37	0.748
1594.38	0.793
1603.39	0.805
1612.41	0.852
1621.42	0.854
1630.44	0.85
1639.45	0.845
1648.46	0.839
1657.48	0.834
1666.49	0.818
1675.5	0.782
1684.52	0.764
1693.53	0.72
1702.55	0.557
1711.56	0.321
1720.57	0.2
1729.59	0.254
1738.6	0.643
1747.62	0.795
1756.63	0.83
1765.64	0.834
1774.66	0.839
1783.67	0.85
1792.68	0.859
1801.7	0.861
1810.71	0.861
1819.73	0.864
1828.74	0.868
1837.75	0.871
1846.77	0.872
1855.78	0.873
1864.79	0.874
1873.81	0.873
1882.82	0.871
1891.84	0.868
1900.85	0.862
1909.86	0.858
1918.88	0.856
1927.89	0.856
1936.9	0.855
1945.92	0.843
1954.93	0.855
1963.95	0.855
1972.96	0.856
1981.97	0.856
1990.99	0.857
2000	0.857
2009.01	0.855
2018.03	0.849
2027.04	0.847
2036.06	0.837
2045.07	0.822
2054.08	0.803
2063.1	0.774
2072.11	0.745
2081.13	0.678
2090.14	0.544
2099.15	0.336
2108.17	0.177
2117.18	0.202
2126.19	0.354
2135.21	0.613
2144.22	0.668
2153.24	0.674
2162.25	0.684
2171.26	0.704
2180.28	0.736
2189.29	0.776
2198.3	0.801
2207.32	0.82
2216.33	0.833
2225.35	0.842
2234.36	0.847
2243.37	0.851
2252.39	0.859
2261.4	0.863
2270.41	0.864
2279.43	0.865
2288.44	0.864
2297.46	0.861
2306.47	0.859
2315.48	0.858
2324.5	0.859
2333.51	0.86
2342.53	0.861
2351.54	0.861
2360.55	0.861
2369.57	0.861
2378.58	0.861
2387.59	0.861
2396.61	0.86
2405.62	0.858
2414.64	0.854
2423.65	0.847
2432.66	0.835
2441.68	0.83
2450.69	0.828
2459.7	0.829
2468.72	0.833
2477.73	0.839
2486.75	0.847
2495.76	0.851
2504.77	0.854
2513.79	0.855
2522.8	0.858
2531.81	0.861
2540.83	0.861
2549.84	0.861
2558.86	0.861
2567.87	0.861
2576.88	0.861
2585.9	0.861
2594.91	0.861
2603.92	0.861
2612.94	0.862
2621.95	0.862
2630.97	0.862
2639.98	0.863
2648.99	0.863
2658.01	0.863
2667.02	0.863
2676.04	0.863
2685.05	0.863
2694.06	0.863
2703.08	0.862
2712.09	0.861
2721.1	0.86
2730.12	0.858
2739.13	0.858
2748.15	0.859
2757.16	0.859
2766.17	0.859
2775.19	0.859
2784.2	0.858
2793.21	0.855
2802.23	0.853
2811.24	0.849
2820.26	0.847
2829.27	0.845
2838.28	0.838
2847.3	0.835
2856.31	0.825
2865.32	0.808
2874.34	0.798
2883.35	0.79
2892.37	0.781
2901.38	0.77
2910.39	0.749
2919.41	0.714
2928.42	0.658
2937.44	0.583
2946.45	0.566
2955.46	0.603
2964.48	0.625
2973.49	0.61
2982.5	0.562
2991.52	0.551
3000.53	0.657
3009.55	0.743
3018.56	0.788
3027.57	0.794
3036.59	0.795
3045.6	0.802
3054.61	0.786
3063.63	0.772
3072.64	0.778
3081.66	0.807
3090.67	0.812
3099.68	0.83
3108.7	0.84
3117.71	0.843
3126.72	0.847
3135.74	0.848
3144.75	0.848
3153.77	0.847
3162.78	0.842
3171.79	0.839
3180.81	0.839
3189.82	0.84
3198.84	0.841
3207.85	0.841
3216.86	0.843
3225.88	0.844
3234.89	0.844
3243.9	0.844
3252.92	0.844
3261.93	0.844
3270.95	0.844
3279.96	0.843
3288.97	0.838
3297.99	0.829
3307	0.815
3316.01	0.807
3325.03	0.794
3334.04	0.809
3343.06	0.818
3352.07	0.823
3361.08	0.827
3370.1	0.828
3379.11	0.828
3388.12	0.827
3397.14	0.826
3406.15	0.826
3415.17	0.819
3424.18	0.814
3433.19	0.817
3442.21	0.82
3451.22	0.826
3460.23	0.828
3469.25	0.828
3478.26	0.828
3487.28	0.828
3496.29	0.827
3505.3	0.826
3514.32	0.825
3523.33	0.825
3532.35	0.825
3541.36	0.825
3550.37	0.827
3559.39	0.829
3568.4	0.831
3577.41	0.831
3586.43	0.831
3595.44	0.83
3604.46	0.83
3613.47	0.828
3622.48	0.827
3631.5	0.826
3640.51	0.825
3649.52	0.824
3658.54	0.824
3667.55	0.824
3676.57	0.826
3685.58	0.83
3694.59	0.83
3703.61	0.832
3712.62	0.83
3721.63	0.83
3730.65	0.829
3739.66	0.828
3748.68	0.828
3757.69	0.829
3766.7	0.83
3775.72	0.83
3784.73	0.83
3793.75	0.829
3802.76	0.827
