Infrared Spectrum: Methyl.-beta.-hydroxynaphthoate
Formula: C 12 H 10 O 3
CAS: 883-99-8
State: gas
Origin: EPA-IR VAPOR PHASE LIBRARY
1/CM	ABSORBANCE
549.8	0.00613
559.445	0.00582
569.09	0.00542
578.734	0.00559
588.379	0.0096
598.024	0.01344
607.669	0.01067
617.313	0.0139
626.958	0.0183
636.603	0.0137
646.248	0.01553
655.893	0.01916
665.537	0.02224
675.182	0.02209
684.827	0.0149
694.472	0.00813
704.116	0.00629
713.761	0.00867
723.406	0.01556
733.051	0.05569
742.695	0.09025
752.34	0.02876
761.985	0.00726
771.63	0.01247
781.275	0.02965
790.919	0.03419
800.564	0.01744
810.209	0.00948
819.854	0.00735
829.498	0.00878
839.143	0.01235
848.788	0.00828
858.433	0.01207
868.078	0.03201
877.722	0.02615
887.367	0.00868
897.012	0.01142
906.657	0.02214
916.301	0.01875
925.946	0.00876
935.591	0.00752
945.236	0.01493
954.88	0.02029
964.525	0.01256
974.17	0.00569
983.815	0.0043
993.46	0.005
1003.1	0.00617
1012.75	0.00824
1022.39	0.00743
1032.04	0.00769
1041.68	0.01166
1051.33	0.02342
1060.97	0.05582
1070.62	0.09232
1080.26	0.07658
1089.91	0.03415
1099.55	0.01711
1109.2	0.01396
1118.84	0.01995
1128.49	0.05091
1138.13	0.11985
1147.78	0.11679
1157.42	0.04145
1167.07	0.04965
1176.71	0.05732
1186.36	0.06413
1196	0.12349
1205.64	0.26021
1215.29	0.32593
1224.93	0.15437
1234.58	0.06858
1244.22	0.04032
1253.87	0.03244
1263.51	0.04377
1273.16	0.1059
1282.8	0.22267
1292.45	0.23758
1302.09	0.14626
1311.74	0.18747
1321.38	0.27546
1331.03	0.14109
1340.67	0.04325
1350.32	0.03372
1359.96	0.02532
1369.61	0.02468
1379.25	0.02303
1388.9	0.02863
1398.54	0.05046
1408.18	0.05936
1417.83	0.0359
1427.47	0.03059
1437.12	0.08802
1446.76	0.11728
1456.41	0.09407
1466.05	0.07752
1475.7	0.02846
1485.34	0.02128
1494.99	0.03978
1504.63	0.07366
1514.28	0.08047
1523.92	0.04361
1533.57	0.01868
1543.21	0.01409
1552.86	0.01444
1562.5	0.01895
1572.15	0.02523
1581.79	0.02241
1591.44	0.01736
1601.08	0.02045
1610.73	0.02349
1620.37	0.03065
1630.01	0.05217
1639.66	0.06333
1649.3	0.03824
1658.95	0.02558
1668.59	0.03085
1678.24	0.04745
1687.88	0.11695
1697.53	0.30251
1707.17	0.36533
1716.82	0.12994
1726.46	0.04173
1736.11	0.02893
1745.75	0.03609
1755.4	0.0367
1765.04	0.01899
1774.69	0.01047
1784.33	0.00811
1793.98	0.00712
1803.62	0.00801
1813.27	0.00714
1822.91	0.00499
1832.55	0.00408
1842.2	0.00442
1851.84	0.00478
1861.49	0.00366
1871.13	0.0028
1880.78	0.00279
1890.42	0.00363
1900.07	0.00454
1909.71	0.0048
1919.36	0.00464
1929	0.00361
1938.65	0.0049
1948.29	0.00301
1957.94	0.00154
1967.58	0.00127
1977.23	0.00151
1986.87	0.00187
1996.52	0.00231
2006.16	0.00289
2015.81	0.00335
2025.45	0.00329
2035.1	0.00263
2044.74	0.00253
2054.38	0.00239
2064.03	0.00182
2073.67	0.00146
2083.32	0.0014
2092.96	0.00151
2102.61	0.00147
2112.25	0.00135
2121.9	0.0014
2131.54	0.00147
2141.19	0.00151
2150.83	0.00169
2160.48	0.00184
2170.12	0.00178
2179.77	0.00145
2189.41	0.00121
2199.06	0.0011
2208.7	0.0009287
2218.35	0.0008558
2227.99	0.0008813
2237.64	0.0009164
2247.28	0.0008765
2256.92	0.000972
2266.57	0.00107
2276.21	0.00137
2285.86	0.00146
2295.5	0.00123
2305.15	0.00109
2314.79	0.0009523
2324.44	0.0009958
2334.08	0.00144
2343.73	0.00185
2353.37	0.00191
2363.02	0.00194
2372.66	0.00198
2382.31	0.00193
2391.95	0.00192
2401.6	0.00174
2411.24	0.00149
2420.89	0.0014
2430.53	0.0014
2440.18	0.00135
2449.82	0.00137
2459.47	0.00133
2469.11	0.00136
2478.75	0.00153
2488.4	0.00181
2498.04	0.00186
2507.69	0.00187
2517.33	0.00195
2526.98	0.00208
2536.62	0.00216
2546.27	0.00216
2555.91	0.00179
2565.56	0.00172
2575.2	0.00186
2584.85	0.00219
2594.49	0.00249
2604.14	0.00249
2613.78	0.0023
2623.43	0.0021
2633.07	0.0019
2642.72	0.00168
2652.36	0.00167
2662.01	0.00173
2671.65	0.00194
2681.29	0.00194
2690.94	0.00198
2700.58	0.00199
2710.23	0.00233
2719.87	0.00258
2729.52	0.00238
2739.16	0.00199
2748.81	0.002
2758.45	0.00212
2768.1	0.0024
2777.74	0.00259
2787.39	0.0027
2797.03	0.00255
2806.68	0.00275
2816.32	0.00288
2825.97	0.00315
2835.61	0.00405
2845.26	0.00614
2854.9	0.00807
2864.55	0.00666
2874.19	0.00452
2883.84	0.00442
2893.48	0.00594
2903.12	0.00754
2912.77	0.00847
2922.41	0.00853
2932.06	0.00801
2941.7	0.01003
2951.35	0.01916
2960.99	0.04955
2970.64	0.03973
2980.28	0.01488
2989.93	0.01275
2999.57	0.01449
3009.22	0.01693
3018.86	0.01664
3028.51	0.01738
3038.15	0.01834
3047.8	0.02272
3057.44	0.04005
3067.09	0.04165
3076.73	0.0305
3086.38	0.0202
3096.02	0.01147
3105.67	0.0074
3115.31	0.00612
3124.95	0.00562
3134.6	0.00537
3144.24	0.0058
3153.89	0.0067
3163.53	0.0078
3173.18	0.00885
3182.82	0.00901
3192.47	0.00891
3202.11	0.00882
3211.76	0.00867
3221.4	0.00824
3231.05	0.00788
3240.69	0.00829
3250.34	0.00971
3259.98	0.01188
3269.63	0.01542
3279.27	0.02033
3288.92	0.02794
3298.56	0.04127
3308.21	0.06023
3317.85	0.07492
3327.49	0.07655
3337.14	0.06834
3346.78	0.05796
3356.43	0.04868
3366.07	0.04226
3375.72	0.03832
3385.36	0.03533
3395.01	0.03269
3404.65	0.02905
3414.3	0.02478
3423.94	0.0209
3433.59	0.01754
3443.23	0.01545
3452.88	0.01368
3462.52	0.01221
3472.17	0.01083
3481.81	0.01006
3491.46	0.01053
3501.1	0.01626
3510.75	0.02322
3520.39	0.01914
3530.04	0.01388
3539.68	0.0113
3549.32	0.00831
3558.97	0.00617
3568.61	0.00429
3578.26	0.00333
3587.9	0.00293
3597.55	0.00274
3607.19	0.00252
3616.84	0.00243
3626.48	0.00238
3636.13	0.00228
3645.77	0.00228
3655.42	0.00199
3665.06	0.00179
3674.71	0.00172
3684.35	0.00154
3694	0.00122
3703.64	0.0009968
3713.29	0.0008291
3722.93	0.0007364
3732.58	0.0007028
3742.22	0.000546
3751.86	0.0006888
3761.51	0.0006757
3771.15	0.0006368
3780.8	0.0006683
3790.44	0.0005301
3800.09	0.000611
3809.73	0.0006854
3819.38	0.0006504
3829.02	0.0007231
3838.67	0.0006637
3848.31	0.0004805
3857.96	0.0005167
3867.6	0.0005339
3877.25	0.0004135
3886.89	0.000633
3896.54	0.0006769
3906.18	0.0006658
3915.83	0.000764
3925.47	0.0009729
3935.12	0.000754
3944.76	0.0008501
3954.41	0.00105
3964.05	0.00125
3973.69	0.00125
3983.34	0.00121
3992.98	0.0009677
