Infrared Spectrum: 9-METHYL-PHENANTHRENE
Formula: C15 H12
CAS: 883-20-5
State: SOLUTION (100 g/L IN HEPTANE)
Class: COBLENTZ
Instrument: Not specified, most likely a prism, grating, or hybrid spectrometer.
Sampling: TRANSMISSION
Path length: 0.01 CM
Resolution: 4
Origin: CENTRE D'ETUDES NUCLEAIRES DE GRENOBLE
MICROMETERS	TRANSMITTANCE
2.007	0.91
2.047	0.915
2.087	0.92
2.12699	0.921
2.16699	0.921
2.20699	0.923
2.24699	0.921
2.28699	0.921
2.32698	0.918
2.36698	0.918
2.40698	0.918
2.44698	0.918
2.48698	0.921
2.52697	0.926
2.56697	0.935
2.60697	0.931
2.64697	0.926
2.68697	0.93
2.72696	0.926
2.76696	0.931
2.80696	0.938
2.84696	0.946
2.88696	0.95
2.92695	0.951
2.96695	0.951
3.00695	0.953
3.04695	0.955
3.08695	0.955
3.12694	0.955
3.16694	0.955
3.20694	0.955
3.24694	0.948
3.28694	0.903
3.32693	0.774
3.36693	0.808
3.40693	0.83
3.44693	0.818
3.48693	0.797
3.52692	0.775
3.56692	0.777
3.60692	0.79
3.64692	0.898
3.68692	0.95
3.72691	0.958
3.76691	0.958
3.80691	0.96
3.84691	0.961
3.88691	0.963
3.9269	0.966
3.9669	0.973
4.0069	0.981
4.0469	0.981
4.0869	0.98
4.12689	0.978
4.16689	0.978
4.20689	0.978
4.24689	0.978
4.28689	0.973
4.32688	0.965
4.36688	0.961
4.40688	0.971
4.44688	0.98
4.48687	0.988
4.52687	0.99
4.56687	0.986
4.60687	0.986
4.64687	0.988
4.68686	0.991
4.72686	0.993
4.76686	0.99
4.80686	0.99
4.84686	0.991
4.88685	0.991
4.92685	0.995
4.96685	0.995
5.00685	0.996
5.04685	0.998
5.08684	0.998
5.12684	0.998
5.16684	0.993
5.20684	0.95
5.24684	0.975
5.28683	0.951
5.32683	0.983
5.36683	0.968
5.40683	0.99
5.44683	0.995
5.48682	0.988
5.52682	0.973
5.56682	0.965
5.60682	0.97
5.64682	0.975
5.68681	0.98
5.72681	0.971
5.76681	0.958
5.80681	0.981
5.84681	0.963
5.8868	0.96
5.9268	0.961
5.9668	0.956
6.0068	0.958
6.0468	0.973
6.08679	0.98
6.12679	0.968
6.16679	0.953
6.20679	0.913
6.24679	0.918
6.28678	0.911
6.32678	0.946
6.36678	0.95
6.40678	0.956
6.44678	0.97
6.48677	0.976
6.52677	0.975
6.56677	0.961
6.60677	0.953
6.64677	0.951
6.68676	0.95
6.72676	0.865
6.76676	0.823
6.80676	0.882
6.84676	0.898
6.88675	0.85
6.92675	0.822
6.96675	0.8
7.00675	0.754
7.04675	0.775
7.08674	0.883
7.12674	0.931
7.16674	0.958
7.20674	0.96
7.24674	0.903
7.28673	0.888
7.32673	0.858
7.36673	0.89
7.40673	0.935
7.44673	0.97
7.48672	0.973
7.52672	0.965
7.56672	0.973
7.60672	0.985
7.64672	0.985
7.68671	0.956
7.72671	0.953
7.76671	0.966
7.80671	0.983
7.84671	0.981
7.8867	0.973
7.9267	0.976
7.9667	0.983
8.0067	0.98
8.0467	0.966
8.08669	0.867
8.12669	0.958
8.16669	0.97
8.20669	0.956
8.24669	0.92
8.28668	0.931
8.32668	0.943
8.36668	0.966
8.40668	0.978
8.44668	0.973
8.48667	0.981
8.52667	0.981
8.56667	0.975
8.60667	0.935
8.64667	0.953
8.68666	0.963
8.72666	0.963
8.76666	0.926
8.80666	0.953
8.84666	0.965
8.88665	0.975
8.92665	0.975
8.96665	0.971
9.00665	0.981
9.04664	0.983
9.08664	0.971
9.12664	0.973
9.16664	0.98
9.20664	0.981
9.24663	0.98
9.28663	0.98
9.32663	0.975
9.36663	0.978
9.40663	0.978
9.44662	0.98
9.48662	0.98
9.52662	0.978
9.56662	0.976
9.60662	0.921
9.64661	0.833
9.68661	0.895
9.72661	0.946
9.76661	0.961
9.80661	0.97
9.8466	0.976
9.8866	0.981
9.9266	0.981
9.9666	0.975
10.0066	0.923
10.0466	0.95
10.0866	0.915
10.1266	0.955
10.1666	0.973
10.2066	0.981
10.2466	0.986
10.2866	0.991
10.3266	0.993
10.3666	0.993
10.4066	0.99
10.4466	0.981
10.4866	0.985
10.5266	0.985
10.5666	0.941
10.6066	0.853
10.6466	0.936
10.6866	0.97
10.7266	0.98
10.7666	0.98
10.8066	0.978
10.8466	0.981
10.8866	0.983
10.9266	0.975
10.9665	0.963
11.0065	0.978
11.0465	0.98
11.0865	0.98
11.1265	0.98
11.1665	0.97
11.2065	0.976
11.2465	0.976
11.2865	0.96
11.3265	0.888
11.3665	0.657
11.4065	0.549
11.4465	0.842
11.4865	0.923
11.5265	0.96
11.5665	0.968
11.6065	0.955
11.6465	0.95
11.6865	0.98
11.7265	0.978
11.7665	0.968
11.8065	0.933
11.8465	0.828
11.8865	0.847
11.9265	0.941
11.9665	0.965
12.0065	0.975
12.0465	0.978
12.0865	0.981
12.1265	0.99
12.1665	1
12.2065	1
12.2465	0.996
12.2865	0.993
12.3265	0.988
12.3665	0.985
12.4065	0.985
12.4465	0.988
12.4865	0.99
12.5265	0.988
12.5665	0.983
12.6065	0.98
12.6465	0.978
12.6865	0.976
12.7265	0.966
12.7665	0.96
12.8065	0.965
12.8465	0.961
12.8865	0.956
12.9264	0.96
12.9664	0.955
13.0064	0.953
13.0464	0.953
13.0864	0.946
13.1264	0.921
13.1664	0.855
13.2064	0.667
13.2464	0.443
13.2864	0.553
13.3264	0.7
13.3664	0.714
13.4064	0.533
13.4464	0.267
13.4864	0.114
13.5264	0.272
13.5664	0.521
13.6064	0.689
13.6464	0.757
13.6864	0.808
13.7264	0.835
13.7664	0.838
13.8064	0.784
13.8464	0.647
13.8864	0.509
13.9264	0.516
13.9664	0.699
14.0064	0.837
14.0464	0.888
14.0864	0.908
14.1264	0.921
14.1664	0.94
14.2064	0.958
14.2464	0.97
14.2864	0.973
14.3264	0.976
14.3664	0.978
14.4064	0.98
14.4464	0.98
14.4864	0.98
14.5264	0.981
14.5664	0.986
14.6064	0.99
14.6464	0.991
14.6864	0.99
14.7264	0.986
14.7664	0.981
14.8064	0.983
14.8464	0.983
14.8864	0.985
14.9263	0.986
14.9663	0.991
15.0063	0.986
15.0463	0.98
15.0863	0.983
15.1263	0.986
15.1663	0.981
15.2063	0.978
15.2463	0.978
15.2863	0.978
15.3263	0.978
15.3663	0.978
15.4063	0.97
15.4463	0.958
15.4863	0.948
15.5263	0.93
15.5663	0.93
15.6063	0.935
15.6463	0.941
15.6863	0.96
15.7263	0.963
15.7663	0.961
15.8063	0.966
15.8463	0.963
15.8863	0.963
