Infrared Spectrum: 2-Phenylbenzothiazole
Formula: C 13 H 9 N S
CAS: 883-93-2
State: gas
Origin: EPA-IR VAPOR PHASE LIBRARY
1/CM	ABSORBANCE
549.8	0.0044
559.445	0.00559
569.09	0.00282
578.734	0.00129
588.379	0.00176
598.024	0.00221
607.669	0.00284
617.313	0.00707
626.958	0.0066
636.603	0.00398
646.248	0.00462
655.893	0.00798
665.537	0.0138
675.182	0.02839
684.827	0.06069
694.472	0.0708
704.116	0.03453
713.761	0.02862
723.406	0.05028
733.051	0.04191
742.695	0.03459
752.34	0.08058
761.985	0.09434
771.63	0.03497
781.275	0.00881
790.919	0.00531
800.564	0.00296
810.209	0.00303
819.854	0.00428
829.498	0.00201
839.143	0.00201
848.788	0.00372
858.433	0.00377
868.078	0.00263
877.722	0.00193
887.367	0.00268
897.012	0.00254
906.657	0.00426
916.301	0.00759
925.946	0.01023
935.591	0.0147
945.236	0.02054
954.88	0.03722
964.525	0.0617
974.17	0.04137
983.815	0.013
993.46	0.00863
1003.1	0.01161
1012.75	0.01003
1022.39	0.00634
1032.04	0.00674
1041.68	0.0028
1051.33	0.00365
1060.97	0.00779
1070.62	0.0108
1080.26	0.00623
1089.91	0.00358
1099.55	0.00339
1109.2	0.00263
1118.84	0.00396
1128.49	0.00596
1138.13	0.00197
1147.78	0.0025
1157.42	0.00637
1167.07	0.00692
1176.71	0.01038
1186.36	0.01078
1196	0.00519
1205.64	0.01162
1215.29	0.03179
1224.93	0.03707
1234.58	0.0231
1244.22	0.02595
1253.87	0.01905
1263.51	0.01155
1273.16	0.01023
1282.8	0.01441
1292.45	0.01609
1302.09	0.02284
1311.74	0.02781
1321.38	0.01425
1331.03	0.00874
1340.67	0.00508
1350.32	0.00264
1359.96	0.00227
1369.61	0.00269
1379.25	0.00355
1388.9	0.00457
1398.54	0.0053
1408.18	0.00448
1417.83	0.00821
1427.47	0.02729
1437.12	0.0557
1446.76	0.02709
1456.41	0.01932
1466.05	0.0153
1475.7	0.03681
1485.34	0.05733
1494.99	0.01862
1504.63	0.01525
1514.28	0.02048
1523.92	0.01759
1533.57	0.00919
1543.21	0.00498
1552.86	0.00521
1562.5	0.00538
1572.15	0.00549
1581.79	0.00522
1591.44	0.00532
1601.08	0.00571
1610.73	0.0034
1620.37	0.00166
1630.01	0.00119
1639.66	0.00118
1649.3	0.00154
1658.95	0.00283
1668.59	0.0029
1678.24	0.0045
1687.88	0.00495
1697.53	0.00307
1707.17	0.00145
1716.82	0.00144
1726.46	0.00182
1736.11	0.00195
1745.75	0.00242
1755.4	0.0021
1765.04	0.00253
1774.69	0.00456
1784.33	0.00457
1793.98	0.00472
1803.62	0.00468
1813.27	0.0047
1822.91	0.00295
1832.55	0.00168
1842.2	0.0011
1851.84	0.00155
1861.49	0.00353
1871.13	0.0038
1880.78	0.00342
1890.42	0.00524
1900.07	0.00544
1909.71	0.00277
1919.36	0.00227
1929	0.00497
1938.65	0.00601
1948.29	0.00385
1957.94	0.00369
1967.58	0.00274
1977.23	0.00116
1986.87	0.0008589
1996.52	0.0007696
2006.16	0.0006367
2015.81	0.0006113
2025.45	0.0006171
2035.1	0.0005597
2044.74	0.0005265
2054.38	0.0005341
2064.03	0.0005308
2073.67	0.0006129
2083.32	0.0005117
2092.96	0.0006009
2102.61	0.0005284
2112.25	0.0005122
2121.9	0.0005263
2131.54	0.0007513
2141.19	0.0008443
2150.83	0.0006535
2160.48	0.0006772
2170.12	0.0007485
2179.77	0.0006186
2189.41	0.0004958
2199.06	0.0005552
2208.7	0.0005587
2218.35	0.0006104
2227.99	0.0005517
2237.64	0.0006859
2247.28	0.000971
2256.92	0.0009788
2266.57	0.0008944
2276.21	0.0009873
2285.86	0.00111
2295.5	0.0009438
2305.15	0.0010183
2314.79	0.00185
2324.44	0.00148
2334.08	0.0009896
2343.73	0.0009241
2353.37	0.0007304
2363.02	0.0007705
2372.66	0.0007367
2382.31	0.0005574
2391.95	0.0005571
2401.6	0.0006219
2411.24	0.0006447
2420.89	0.0007321
2430.53	0.0008796
2440.18	0.0008643
2449.82	0.0009895
2459.47	0.0009029
2469.11	0.0008654
2478.75	0.0007876
2488.4	0.0007281
2498.04	0.0008094
2507.69	0.0009825
2517.33	0.0007838
2526.98	0.0006992
2536.62	0.000693
2546.27	0.0008226
2555.91	0.0008736
2565.56	0.0010027
2575.2	0.0009986
2584.85	0.00119
2594.49	0.00124
2604.14	0.0012
2613.78	0.00104
2623.43	0.0008056
2633.07	0.0006983
2642.72	0.0007628
2652.36	0.0008117
2662.01	0.0008067
2671.65	0.0008015
2681.29	0.000764
2690.94	0.0007021
2700.58	0.0006304
2710.23	0.0007456
2719.87	0.0008928
2729.52	0.00117
2739.16	0.0013
2748.81	0.0010037
2758.45	0.0009057
2768.1	0.0008689
2777.74	0.0007892
2787.39	0.0008357
2797.03	0.0009339
2806.68	0.000917
2816.32	0.00109
2825.97	0.0012
2835.61	0.0010117
2845.26	0.0011
2854.9	0.00127
2864.55	0.0014
2874.19	0.00117
2883.84	0.00136
2893.48	0.00129
2903.12	0.00129
2912.77	0.00134
2922.41	0.00111
2932.06	0.0008455
2941.7	0.0008961
2951.35	0.00125
2960.99	0.00147
2970.64	0.00144
2980.28	0.00187
2989.93	0.00293
2999.57	0.00366
3009.22	0.00499
3018.86	0.00855
3028.51	0.01661
3038.15	0.02129
3047.8	0.01783
3057.44	0.02899
3067.09	0.06596
3076.73	0.07004
3086.38	0.03276
3096.02	0.02091
3105.67	0.01266
3115.31	0.00847
3124.95	0.00511
3134.6	0.00292
3144.24	0.00169
3153.89	0.00139
3163.53	0.00132
3173.18	0.00107
3182.82	0.0007039
3192.47	0.0006096
3202.11	0.0004599
3211.76	0.0004155
3221.4	0.0003873
3231.05	0.0004713
3240.69	0.0003586
3250.34	0.0004187
3259.98	0.0002412
3269.63	0.0002118
3279.27	0.0002229
3288.92	0.00012014
3298.56	0.0003294
3308.21	0.0004131
3317.85	0.0001922
3327.49	0.0001908
3337.14	0.0004196
3346.78	0.0002667
3356.43	0.0002325
3366.07	0.0004091
3375.72	0.0002791
3385.36	0.0004034
3395.01	0.0001804
3404.65	0.0003019
3414.3	0.0002725
3423.94	0.0003066
3433.59	0.0001843
3443.23	0.000296
3452.88	0.0002683
3462.52	0.0001656
3472.17	0.0002594
3481.81	0.0002831
3491.46	0.0001958
3501.1	0.0002498
3510.75	0.0003079
3520.39	0.00011787
3530.04	0.0002213
3539.68	9.008e-05
3549.32	0.0001528
3558.97	0.0001952
3568.61	0.0002554
3578.26	0.0001734
3587.9	0.000411
3597.55	0.000376
3607.19	0.0003592
3616.84	0.0003152
3626.48	0.0004933
3636.13	0.0005614
3645.77	0.0005877
3655.42	0.0004558
3665.06	0.0003536
3674.71	0.00010046
3684.35	0.000531
3694	0.0006115
3703.64	0.0005122
3713.29	0.0005064
3722.93	0.0006199
3732.58	0.0004817
3742.22	0.0005817
3751.86	0.0004925
3761.51	0.000731
3771.15	0.0006261
3780.8	0.0005094
3790.44	0.0005774
3800.09	0.0003032
3809.73	0.0002091
3819.38	0.000162
3829.02	0.0001919
3838.67	0.0001821
3848.31	0.0002001
3857.96	0.0002887
3867.6	0.0002207
3877.25	0.0002226
3886.89	0.0003157
3896.54	0.0004035
3906.18	0.0005392
3915.83	0.0008863
3925.47	0.0009185
3935.12	0.0005725
3944.76	0.0003525
3954.41	0.0003627
3964.05	0.0002405
3973.69	0.0002561
3983.34	0.0003814
3992.98	0.0004508
