Infrared Spectrum: p-Octyloxybenzonitrile
Formula: C 15 H 21 N O
CAS: 88374-55-4
State: gas
Origin: EPA-IR VAPOR PHASE LIBRARY
1/CM	ABSORBANCE
549.8	0.021318
559.445	0.010718
569.09	0.006408
578.734	0.003838
588.379	0.002648
598.024	0.001508
607.669	0.001558
617.313	0.0010854
626.958	0.001528
636.603	0.001508
646.248	0.002558
655.893	0.003628
665.537	0.006688
675.182	0.008898
684.827	0.009678
694.472	0.012048
704.116	0.010408
713.761	0.007878
723.406	0.006728
733.051	0.005468
742.695	0.004698
752.34	0.003898
761.985	0.003718
771.63	0.003928
781.275	0.004468
790.919	0.005998
800.564	0.010218
810.209	0.015008
819.854	0.021578
829.498	0.054198
839.143	0.057708
848.788	0.025658
858.433	0.013838
868.078	0.008288
877.722	0.006098
887.367	0.005688
897.012	0.006798
906.657	0.007868
916.301	0.007258
925.946	0.007428
935.591	0.008238
945.236	0.009308
954.88	0.012458
964.525	0.017158
974.17	0.020488
983.815	0.024378
993.46	0.027978
1003.1	0.031468
1012.75	0.039718
1022.39	0.047668
1032.04	0.049528
1041.68	0.041608
1051.33	0.029358
1060.97	0.022318
1070.62	0.017838
1080.26	0.013338
1089.91	0.010888
1099.55	0.011298
1109.2	0.013348
1118.84	0.011478
1128.49	0.009708
1138.13	0.007128
1147.78	0.009308
1157.42	0.020498
1167.07	0.098918
1176.71	0.072548
1186.36	0.021498
1196	0.018988
1205.64	0.026498
1215.29	0.041658
1224.93	0.072168
1234.58	0.138808
1244.22	0.219818
1253.87	0.238358
1263.51	0.120478
1273.16	0.085588
1282.8	0.100128
1292.45	0.116818
1302.09	0.076878
1311.74	0.045628
1321.38	0.025488
1331.03	0.017478
1340.67	0.014308
1350.32	0.013718
1359.96	0.013568
1369.61	0.013418
1379.25	0.018698
1388.9	0.024898
1398.54	0.015438
1408.18	0.010958
1417.83	0.010318
1427.47	0.010018
1437.12	0.013538
1446.76	0.019418
1456.41	0.028148
1466.05	0.045588
1475.7	0.062158
1485.34	0.039968
1494.99	0.070108
1504.63	0.210508
1514.28	0.150078
1523.92	0.029738
1533.57	0.014608
1543.21	0.012328
1552.86	0.013048
1562.5	0.016218
1572.15	0.025798
1581.79	0.024628
1591.44	0.045658
1601.08	0.132338
1610.73	0.140778
1620.37	0.036108
1630.01	0.012728
1639.66	0.008278
1649.3	0.006088
1658.95	0.004738
1668.59	0.004228
1678.24	0.003328
1687.88	0.002738
1697.53	0.002318
1707.17	0.002148
1716.82	0.002078
1726.46	0.002118
1736.11	0.002228
1745.75	0.002528
1755.4	0.003098
1765.04	0.003378
1774.69	0.002028
1784.33	0.001778
1793.98	0.001618
1803.62	0.001368
1813.27	0.001378
1822.91	0.001328
1832.55	0.001388
1842.2	0.001708
1851.84	0.001918
1861.49	0.002358
1871.13	0.003068
1880.78	0.003578
1890.42	0.004478
1900.07	0.004018
1909.71	0.003318
1919.36	0.002508
1929	0.002148
1938.65	0.002148
1948.29	0.002318
1957.94	0.002468
1967.58	0.002618
1977.23	0.002818
1986.87	0.002848
1996.52	0.002978
2006.16	0.002988
2015.81	0.002888
2025.45	0.002978
2035.1	0.002748
2044.74	0.002598
2054.38	0.002548
2064.03	0.002398
2073.67	0.002428
2083.32	0.002408
2092.96	0.002148
2102.61	0.001918
2112.25	0.001798
2121.9	0.001588
2131.54	0.001438
2141.19	0.0011616
2150.83	0.0011681
2160.48	0.0011033
2170.12	0.0012395
2179.77	0.001428
2189.41	0.001298
2199.06	0.001788
2208.7	0.003418
2218.35	0.010218
2227.99	0.040948
2237.64	0.026688
2247.28	0.004398
2256.92	0.002058
2266.57	0.001588
2276.21	0.001518
2285.86	0.001458
2295.5	0.001508
2305.15	0.001388
2314.79	0.001348
2324.44	0.001518
2334.08	0.001668
2343.73	0.001908
2353.37	0.001518
2363.02	0.001438
2372.66	0.001618
2382.31	0.001848
2391.95	0.002048
2401.6	0.002278
2411.24	0.002308
2420.89	0.002298
2430.53	0.002288
2440.18	0.002278
2449.82	0.002308
2459.47	0.002378
2469.11	0.002318
2478.75	0.002208
2488.4	0.002548
2498.04	0.002898
2507.69	0.003208
2517.33	0.004178
2526.98	0.005058
2536.62	0.005968
2546.27	0.005988
2555.91	0.004588
2565.56	0.003568
2575.2	0.003008
2584.85	0.002618
2594.49	0.002268
2604.14	0.002228
2613.78	0.002388
2623.43	0.002218
2633.07	0.002318
2642.72	0.002388
2652.36	0.002568
2662.01	0.002768
2671.65	0.003128
2681.29	0.003138
2690.94	0.003288
2700.58	0.003398
2710.23	0.003288
2719.87	0.003418
2729.52	0.003808
2739.16	0.004578
2748.81	0.005178
2758.45	0.005458
2768.1	0.005598
2777.74	0.005828
2787.39	0.006258
2797.03	0.007208
2806.68	0.008488
2816.32	0.010378
2825.97	0.013238
2835.61	0.018118
2845.26	0.029228
2854.9	0.056448
2864.55	0.087468
2874.19	0.084618
2883.84	0.077068
2893.48	0.068158
2903.12	0.076578
2912.77	0.107338
2922.41	0.162658
2932.06	0.226428
2941.7	0.220878
2951.35	0.165698
2960.99	0.133498
2970.64	0.116258
2980.28	0.062408
2989.93	0.032478
2999.57	0.019878
3009.22	0.014078
3018.86	0.010648
3028.51	0.008828
3038.15	0.009008
3047.8	0.012208
3057.44	0.011998
3067.09	0.007578
3076.73	0.007018
3086.38	0.007138
3096.02	0.006868
3105.67	0.006618
3115.31	0.004998
3124.95	0.004268
3134.6	0.003118
3144.24	0.002558
3153.89	0.002018
3163.53	0.001608
3173.18	0.001648
3182.82	0.001678
3192.47	0.001458
3202.11	0.001678
3211.76	0.001468
3221.4	0.0011522
3231.05	0.0008425
3240.69	0.000784
3250.34	0.0006958
3259.98	0.0004874
3269.63	0.0005354
3279.27	0.0004522
3288.92	0.0005403
3298.56	0.0004789
3308.21	0.0004396
3317.85	0.0003974
3327.49	0.0003999
3337.14	0.0004021
3346.78	0.0002321
3356.43	0.0004126
3366.07	0.0004219
3375.72	0.0004565
3385.36	0.00072
3395.01	0.001015
3404.65	0.0011964
3414.3	0.0011279
3423.94	0.0012408
3433.59	0.000902
3443.23	0.0006947
3452.88	0.0004112
3462.52	0.00028916
3472.17	0.0003743
3481.81	0.00031827
3491.46	0.000387
3501.1	0.0001886
3510.75	6.2e-05
3520.39	0.0002898
3530.04	0.000125
3539.68	0.0002566
3549.32	0.0002374
3558.97	0
3568.61	0.0001909
3578.26	0.0001724
3587.9	0.000146
3597.55	0.00031908
3607.19	0.0005585
3616.84	0.0005062
3626.48	0.0003994
3636.13	0.00034706
3645.77	0.0005181
3655.42	0.0006924
3665.06	0.0003953
3674.71	0.0004425
3684.35	0.0006059
3694	0.000744
3703.64	0.0006153
3713.29	0.0006272
3722.93	0.0006889
3732.58	0.0008195
3742.22	0.0005523
3751.86	0.0007536
3761.51	0.0006546
3771.15	0.0006037
3780.8	0.0006512
3790.44	0.0006894
3800.09	0.0006928
3809.73	0.0008326
3819.38	0.0008095
3829.02	0.0011114
3838.67	0.001195
3848.31	0.0008633
3857.96	0.0006905
3867.6	0.0004237
3877.25	0.0007693
3886.89	0.0005887
3896.54	0.0006526
3906.18	0.0006542
3915.83	0.0008636
3925.47	0.0007456
3935.12	0.0008796
3944.76	0.000573
3954.41	0.000779
3964.05	0.0008144
3973.69	0.0008985
3983.34	0.0010012
3992.98	0.0008143
