Infrared Spectrum: 2-Bromo-3-methoxybenzoic acid
Formula: C 8 H 7 Br O 3
CAS: 88377-29-1
State: gas
Origin: EPA-IR VAPOR PHASE LIBRARY
1/CM	ABSORBANCE
549.8	0.05266
559.445	0.07732
569.09	0.09435
578.734	0.1065
588.379	0.09022
598.024	0.05089
607.669	0.0302
617.313	0.02337
626.958	0.02507
636.603	0.05911
646.248	0.15191
655.893	0.12108
665.537	0.02938
675.182	0.0133
684.827	0.00847
694.472	0.00781
704.116	0.00891
713.761	0.01217
723.406	0.02182
733.051	0.04574
742.695	0.09808
752.34	0.1566
761.985	0.12756
771.63	0.07439
781.275	0.0519
790.919	0.04019
800.564	0.02769
810.209	0.01373
819.854	0.00727
829.498	0.00593
839.143	0.00566
848.788	0.00539
858.433	0.00611
868.078	0.00813
877.722	0.01084
887.367	0.0107
897.012	0.00823
906.657	0.00717
916.301	0.00575
925.946	0.00519
935.591	0.00526
945.236	0.00561
954.88	0.00654
964.525	0.00891
974.17	0.01207
983.815	0.01782
993.46	0.02339
1003.1	0.02592
1012.75	0.03698
1022.39	0.08044
1032.04	0.1117
1041.68	0.07742
1051.33	0.04325
1060.97	0.03584
1070.62	0.05165
1080.26	0.09339
1089.91	0.17315
1099.55	0.25438
1109.2	0.31325
1118.84	0.34892
1128.49	0.27205
1138.13	0.14452
1147.78	0.07683
1157.42	0.0687
1167.07	0.104
1176.71	0.08847
1186.36	0.04826
1196	0.05537
1205.64	0.08938
1215.29	0.09033
1224.93	0.0528
1234.58	0.03738
1244.22	0.03464
1253.87	0.03595
1263.51	0.04188
1273.16	0.05204
1282.8	0.06538
1292.45	0.07987
1302.09	0.09656
1311.74	0.12045
1321.38	0.12568
1331.03	0.10092
1340.67	0.0826
1350.32	0.07964
1359.96	0.07729
1369.61	0.06538
1379.25	0.0536
1388.9	0.05258
1398.54	0.0553
1408.18	0.07334
1417.83	0.07122
1427.47	0.05308
1437.12	0.04842
1446.76	0.04919
1456.41	0.04436
1466.05	0.03796
1475.7	0.02671
1485.34	0.01543
1494.99	0.01192
1504.63	0.01067
1514.28	0.00896
1523.92	0.00809
1533.57	0.00924
1543.21	0.0122
1552.86	0.01448
1562.5	0.02
1572.15	0.03365
1581.79	0.03703
1591.44	0.02276
1601.08	0.01445
1610.73	0.01121
1620.37	0.00867
1630.01	0.00708
1639.66	0.00669
1649.3	0.00717
1658.95	0.00771
1668.59	0.00829
1678.24	0.00942
1687.88	0.012
1697.53	0.01644
1707.17	0.02442
1716.82	0.04243
1726.46	0.07719
1736.11	0.1256
1745.75	0.18989
1755.4	0.31771
1765.04	0.47694
1774.69	0.46307
1784.33	0.28252
1793.98	0.14997
1803.62	0.08444
1813.27	0.04491
1822.91	0.02331
1832.55	0.01349
1842.2	0.0098
1851.84	0.00799
1861.49	0.00828
1871.13	0.00915
1880.78	0.00685
1890.42	0.00418
1900.07	0.00333
1909.71	0.00344
1919.36	0.00461
1929	0.00759
1938.65	0.00818
1948.29	0.00496
1957.94	0.00321
1967.58	0.00297
1977.23	0.00278
1986.87	0.00281
1996.52	0.00272
2006.16	0.00235
2015.81	0.00189
2025.45	0.00149
2035.1	0.00131
2044.74	0.00146
2054.38	0.0015
2064.03	0.00135
2073.67	0.00124
2083.32	0.00127
2092.96	0.0013
2102.61	0.00123
2112.25	0.0012
2121.9	0.00131
2131.54	0.00139
2141.19	0.00135
2150.83	0.00127
2160.48	0.00126
2170.12	0.00139
2179.77	0.00158
2189.41	0.00169
2199.06	0.00187
2208.7	0.00223
2218.35	0.00254
2227.99	0.00224
2237.64	0.00174
2247.28	0.00159
2256.92	0.00169
2266.57	0.00174
2276.21	0.00178
2285.86	0.00164
2295.5	0.00148
2305.15	0.0013
2314.79	0.00138
2324.44	0.00145
2334.08	0.00175
2343.73	0.0018
2353.37	0.0016
2363.02	0.00147
2372.66	0.00156
2382.31	0.00157
2391.95	0.00153
2401.6	0.00173
2411.24	0.00211
2420.89	0.0023
2430.53	0.00226
2440.18	0.00217
2449.82	0.00215
2459.47	0.00206
2469.11	0.00189
2478.75	0.00169
2488.4	0.00155
2498.04	0.00149
2507.69	0.00144
2517.33	0.00153
2526.98	0.00169
2536.62	0.00171
2546.27	0.00147
2555.91	0.00125
2565.56	0.00111
2575.2	0.00113
2584.85	0.00122
2594.49	0.00134
2604.14	0.00148
2613.78	0.00146
2623.43	0.00132
2633.07	0.00129
2642.72	0.00121
2652.36	0.00101
2662.01	0.00105
2671.65	0.00102
2681.29	0.000898
2690.94	0.0007931
2700.58	0.00073
2710.23	0.0006732
2719.87	0.0007274
2729.52	0.0007147
2739.16	0.00118
2748.81	0.00191
2758.45	0.00171
2768.1	0.0009796
2777.74	0.0008995
2787.39	0.00103
2797.03	0.00119
2806.68	0.0013
2816.32	0.00165
2825.97	0.0023
2835.61	0.00328
2845.26	0.00459
2854.9	0.00652
2864.55	0.00893
2874.19	0.00934
2883.84	0.00787
2893.48	0.00794
2903.12	0.00956
2912.77	0.01233
2922.41	0.01755
2932.06	0.02802
2941.7	0.031
2951.35	0.02043
2960.99	0.01785
2970.64	0.0227
2980.28	0.02616
2989.93	0.02844
2999.57	0.01988
3009.22	0.01466
3018.86	0.01296
3028.51	0.01125
3038.15	0.01333
3047.8	0.02379
3057.44	0.03067
3067.09	0.02765
3076.73	0.03162
3086.38	0.02416
3096.02	0.00876
3105.67	0.00452
3115.31	0.00364
3124.95	0.00319
3134.6	0.00288
3144.24	0.00292
3153.89	0.0028
3163.53	0.00227
3173.18	0.00149
3182.82	0.00101
3192.47	0.0008158
3202.11	0.0006052
3211.76	0.0004958
3221.4	0.0005499
3231.05	0.0004683
3240.69	0.0003527
3250.34	0.0003084
3259.98	0.0002488
3269.63	0.0002764
3279.27	0.0002952
3288.92	0.0002159
3298.56	0.0001986
3308.21	0.0001868
3317.85	0.0002586
3327.49	0.0002981
3337.14	0.0004139
3346.78	0.0003991
3356.43	0.0004765
3366.07	0.0003634
3375.72	0.0002422
3385.36	0.0002787
3395.01	0.0006143
3404.65	0.0007411
3414.3	0.0007796
3423.94	0.0009697
3433.59	0.00101
3443.23	0.00118
3452.88	0.00168
3462.52	0.00265
3472.17	0.00385
3481.81	0.00493
3491.46	0.00674
3501.1	0.00867
3510.75	0.00926
3520.39	0.00919
3530.04	0.01024
3539.68	0.01382
3549.32	0.02552
3558.97	0.10099
3568.61	0.22454
3578.26	0.15198
3587.9	0.03408
3597.55	0.01329
3607.19	0.00931
3616.84	0.00619
3626.48	0.00367
3636.13	0.00284
3645.77	0.00206
3655.42	0.00118
3665.06	0.0006841
3674.71	0.0006299
3684.35	0.0004967
3694	0.000531
3703.64	0.00054
3713.29	0.0004372
3722.93	0.0006112
3732.58	0.0006297
3742.22	0.0005411
3751.86	0.000334
3761.51	0.0003842
3771.15	0.0004406
3780.8	0.0004384
3790.44	0.00039
3800.09	0.0005334
3809.73	0.0005714
3819.38	0.0006164
3829.02	0.0007353
3838.67	0.0005865
3848.31	0.0003783
3857.96	0.0001794
3867.6	0.0002854
3877.25	0.0002175
3886.89	0.0001739
3896.54	0.00017
3906.18	5.358e-05
3915.83	0.0002661
3925.47	0.0003373
3935.12	0.0004082
3944.76	0.0005638
3954.41	0.0004708
3964.05	0.0005277
3973.69	0.0005135
3983.34	0.0004064
3992.98	0.0006518
