Infrared Spectrum: 1,3-PROPANEDIOL, 2,2-DIMETHYL-, CYCLIC PHENYL PHOSPHATE
Formula: C11 H15 O4 P
CAS: 884-89-9
State: SOLID (KBr PELLET)
Melting point: 133-135 C
Class: COBLENTZ
Instrument: Not specified, most likely a prism, grating, or hybrid spectrometer.
Sampling: TRANSMISSION
Resolution: 4
Origin: TENNESSEE EASTMAN COMPANY, RESEARCH LABORATORIES
MICROMETERS	TRANSMITTANCE
2.039	0.766
2.07902	0.781
2.11905	0.784
2.15907	0.791
2.1991	0.796
2.23912	0.799
2.27914	0.801
2.31917	0.803
2.35919	0.806
2.39922	0.809
2.43924	0.816
2.47927	0.823
2.51929	0.829
2.55931	0.831
2.59934	0.834
2.63936	0.841
2.67939	0.843
2.71941	0.843
2.75943	0.839
2.79946	0.833
2.83948	0.828
2.87951	0.823
2.91953	0.819
2.95956	0.818
2.99958	0.821
3.0396	0.824
3.07963	0.834
3.11965	0.844
3.15968	0.858
3.1997	0.869
3.23972	0.874
3.27975	0.853
3.31977	0.866
3.3598	0.729
3.39982	0.797
3.43984	0.824
3.47987	0.894
3.51989	0.923
3.55992	0.943
3.59994	0.949
3.63997	0.949
3.67999	0.951
3.72001	0.951
3.76004	0.946
3.80006	0.946
3.84009	0.949
3.88011	0.949
3.92013	0.949
3.96016	0.951
4.00018	0.951
4.04021	0.951
4.08023	0.951
4.12026	0.951
4.16028	0.949
4.2003	0.944
4.24033	0.931
4.28035	0.906
4.32038	0.908
4.3604	0.939
4.40042	0.951
4.44045	0.953
4.48047	0.949
4.5205	0.943
4.56052	0.949
4.60054	0.949
4.64057	0.951
4.68059	0.951
4.72062	0.951
4.76064	0.951
4.80067	0.956
4.84069	0.958
4.88071	0.956
4.92074	0.951
4.96076	0.949
5.00079	0.949
5.04081	0.949
5.08083	0.939
5.12086	0.948
5.16088	0.944
5.20091	0.948
5.24093	0.949
5.28096	0.946
5.32098	0.944
5.361	0.949
5.40103	0.933
5.44105	0.931
5.48108	0.949
5.5211	0.949
5.56112	0.939
5.60115	0.936
5.64117	0.939
5.6812	0.938
5.72122	0.913
5.76124	0.913
5.80127	0.923
5.84129	0.913
5.88132	0.901
5.92134	0.909
5.96137	0.899
6.00139	0.898
6.04141	0.888
6.08144	0.871
6.12146	0.873
6.16149	0.879
6.20151	0.873
6.24153	0.642
6.28156	0.749
6.32158	0.849
6.36161	0.914
6.40163	0.919
6.44166	0.909
6.48168	0.899
6.5217	0.899
6.56173	0.849
6.60175	0.739
6.64178	0.624
6.6818	0.273
6.72182	0.5
6.76185	0.597
6.80187	0.717
6.8419	0.829
6.88192	0.884
6.92194	0.896
6.96197	0.908
7.00199	0.911
7.04202	0.904
7.08204	0.881
7.12207	0.883
7.16209	0.918
7.20211	0.909
7.24214	0.757
7.28216	0.742
7.32219	0.849
7.36221	0.858
7.40223	0.904
7.44226	0.913
7.48228	0.893
7.52231	0.873
7.56233	0.811
7.60236	0.682
7.64238	0.721
7.6824	0.42
7.72243	0.048
7.76245	0.053
7.80248	0.213
7.8425	0.57
7.88252	0.721
7.92255	0.767
7.96257	0.781
8.0026	0.777
8.04262	0.787
8.08264	0.772
8.12267	0.686
8.16269	0.667
8.20272	0.55
8.24274	0.398
8.28277	0.096
8.32279	0.285
8.36281	0.636
8.40284	0.741
8.44286	0.747
8.48289	0.654
8.52291	0.419
8.56293	0.741
8.60296	0.801
8.64298	0.844
8.68301	0.849
8.72303	0.851
8.76306	0.851
8.80308	0.831
8.8431	0.834
8.88313	0.834
8.92315	0.833
8.96318	0.828
9.0032	0.804
9.04322	0.801
9.08325	0.811
9.12327	0.801
9.1633	0.799
9.20332	0.771
9.24334	0.682
9.28337	0.564
9.32339	0.512
9.36342	0.298
9.40344	0.058
9.44347	0.041
9.48349	0.123
9.52351	0.429
9.56354	0.595
9.60356	0.634
9.64359	0.517
9.68361	0.544
9.72363	0.609
9.76366	0.545
9.80368	0.25
9.84371	0.036
9.88373	0.035
9.92376	0.15
9.96378	0.395
10.0038	0.504
10.0438	0.41
10.0839	0.156
10.1239	0.183
10.1639	0.467
10.2039	0.651
10.2439	0.712
10.284	0.724
10.324	0.726
10.364	0.719
10.404	0.664
10.4441	0.632
10.4841	0.58
10.5241	0.398
10.5641	0.22
10.6042	0.108
10.6442	0.05
10.6842	0.04
10.7242	0.055
10.7643	0.171
10.8043	0.335
10.8443	0.292
10.8843	0.397
10.9244	0.482
10.9644	0.537
11.0044	0.721
11.0444	0.806
11.0845	0.839
11.1245	0.859
11.1645	0.883
11.2045	0.903
11.2446	0.913
11.2846	0.906
11.3246	0.908
11.3646	0.904
11.4046	0.876
11.4447	0.814
11.4847	0.704
11.5247	0.427
11.5647	0.185
11.6048	0.257
11.6448	0.459
11.6848	0.649
11.7248	0.781
11.7649	0.846
11.8049	0.889
11.8449	0.903
11.8849	0.903
11.925	0.906
11.965	0.911
12.005	0.911
12.045	0.891
12.0851	0.869
12.1251	0.864
12.1651	0.881
12.2051	0.898
12.2452	0.883
12.2852	0.803
12.3252	0.674
12.3652	0.452
12.4053	0.352
12.4453	0.427
12.4853	0.602
12.5253	0.761
12.5653	0.831
12.6054	0.869
12.6454	0.883
12.6854	0.886
12.7254	0.864
12.7655	0.809
12.8055	0.676
12.8455	0.552
12.8855	0.527
12.9256	0.459
12.9656	0.604
13.0056	0.776
13.0456	0.836
13.0857	0.879
13.1257	0.901
13.1657	0.918
13.2057	0.921
13.2458	0.923
13.2858	0.926
13.3258	0.939
13.3658	0.956
13.4059	0.961
13.4459	0.959
13.4859	0.954
13.5259	0.949
13.566	0.946
13.606	0.948
13.646	0.948
13.686	0.948
13.726	0.941
13.7661	0.936
13.8061	0.934
13.8461	0.938
13.8861	0.944
13.9262	0.946
13.9662	0.946
14.0062	0.946
14.0462	0.939
14.0863	0.934
14.1263	0.934
14.1663	0.934
14.2063	0.916
14.2464	0.888
14.2864	0.823
14.3264	0.706
14.3664	0.631
14.4065	0.599
14.4465	0.599
14.4865	0.637
14.5265	0.716
14.5666	0.787
14.6066	0.831
14.6466	0.853
14.6866	0.863
14.7267	0.864
14.7667	0.863
14.8067	0.854
14.8467	0.859
14.8867	0.853
14.9268	0.821
14.9668	0.794
15.0068	0.786
15.0468	0.791
15.0869	0.791
15.1269	0.782
15.1669	0.772
15.2069	0.764
15.247	0.747
15.287	0.729
15.327	0.721
15.367	0.711
15.4071	0.702
15.4471	0.696
15.4871	0.691
15.5271	0.682
15.5672	0.671
15.6072	0.661
15.6472	0.652
15.6872	0.639
15.7273	0.631
15.7673	0.621
15.8073	0.602
15.8473	0.589
15.8874	0.574
15.9274	0.547
15.9674	0.542
