Infrared Spectrum: .alpha.-Benzylsuccinic acid
Formula: C 11 H 12 O 4
CAS: 884-33-3
State: gas
Origin: EPA-IR VAPOR PHASE LIBRARY
1/CM	ABSORBANCE
549.8	0.002456
559.445	0.004126
569.09	0.005116
578.734	0.005906
588.379	0.008316
598.024	0.009736
607.669	0.008656
617.313	0.006876
626.958	0.006716
636.603	0.005526
646.248	0.004716
655.893	0.004836
665.537	0.005086
675.182	0.007236
684.827	0.009756
694.472	0.020176
704.116	0.022446
713.761	0.016356
723.406	0.012506
733.051	0.011146
742.695	0.013166
752.34	0.011016
761.985	0.007276
771.63	0.004936
781.275	0.002796
790.919	0.001676
800.564	0.001506
810.209	0.002736
819.854	0.003006
829.498	0.002866
839.143	0.003566
848.788	0.004176
858.433	0.004976
868.078	0.008026
877.722	0.016246
887.367	0.027346
897.012	0.033066
906.657	0.036086
916.301	0.045746
925.946	0.056406
935.591	0.057636
945.236	0.046646
954.88	0.025006
964.525	0.011996
974.17	0.010576
983.815	0.014856
993.46	0.016696
1003.1	0.016976
1012.75	0.023096
1022.39	0.019246
1032.04	0.015116
1041.68	0.020196
1051.33	0.037726
1060.97	0.055266
1070.62	0.054316
1080.26	0.037866
1089.91	0.019386
1099.55	0.008826
1109.2	0.006346
1118.84	0.004526
1128.49	0.004736
1138.13	0.005836
1147.78	0.007166
1157.42	0.008256
1167.07	0.009926
1176.71	0.013446
1186.36	0.017506
1196	0.024176
1205.64	0.028936
1215.29	0.032946
1224.93	0.037026
1234.58	0.032246
1244.22	0.020496
1253.87	0.015476
1263.51	0.011126
1273.16	0.009686
1282.8	0.009066
1292.45	0.008146
1302.09	0.007446
1311.74	0.007116
1321.38	0.005896
1331.03	0.005746
1340.67	0.005686
1350.32	0.005606
1359.96	0.004026
1369.61	0.002706
1379.25	0.002466
1388.9	0.002276
1398.54	0.002656
1408.18	0.002996
1417.83	0.005076
1427.47	0.007976
1437.12	0.006626
1446.76	0.007946
1456.41	0.007796
1466.05	0.004376
1475.7	0.002916
1485.34	0.004156
1494.99	0.008946
1504.63	0.006386
1514.28	0.002046
1523.92	0.001806
1533.57	0.001916
1543.21	0.001746
1552.86	0.001676
1562.5	0.001696
1572.15	0.002086
1581.79	0.002156
1591.44	0.003306
1601.08	0.004526
1610.73	0.003826
1620.37	0.002406
1630.01	0.001956
1639.66	0.001726
1649.3	0.002026
1658.95	0.002136
1668.59	0.002286
1678.24	0.002306
1687.88	0.002426
1697.53	0.002526
1707.17	0.002366
1716.82	0.003046
1726.46	0.003406
1736.11	0.004666
1745.75	0.006606
1755.4	0.010336
1765.04	0.017356
1774.69	0.030756
1784.33	0.059546
1793.98	0.128656
1803.62	0.214616
1813.27	0.189696
1822.91	0.091636
1832.55	0.048346
1842.2	0.034146
1851.84	0.028926
1861.49	0.031726
1871.13	0.047386
1880.78	0.053956
1890.42	0.025476
1900.07	0.010336
1909.71	0.006156
1919.36	0.004836
1929	0.004126
1938.65	0.004126
1948.29	0.003646
1957.94	0.003236
1967.58	0.002646
1977.23	0.002126
1986.87	0.001906
1996.52	0.001946
2006.16	0.002166
2015.81	0.002056
2025.45	0.001596
2035.1	0.001439
2044.74	0.001466
2054.38	0.0012103
2064.03	0.0012965
2073.67	0.0013269
2083.32	0.001434
2092.96	0.001466
2102.61	0.001606
2112.25	0.001766
2121.9	0.001946
2131.54	0.002116
2141.19	0.002016
2150.83	0.001866
2160.48	0.001986
2170.12	0.001806
2179.77	0.001556
2189.41	0.001309
2199.06	0.0013949
2208.7	0.001626
2218.35	0.0011859
2227.99	0.0014468
2237.64	0.0013883
2247.28	0.001536
2256.92	0.0013768
2266.57	0.0014022
2276.21	0.001466
2285.86	0.0013528
2295.5	0.0013122
2305.15	0.0011772
2314.79	0.0014484
2324.44	0.0012594
2334.08	0.0010675
2343.73	0.0009163
2353.37	0.0012247
2363.02	0.0009357
2372.66	0.001012
2382.31	0.0010765
2391.95	0.0008798
2401.6	0.0010242
2411.24	0.0008764
2420.89	0.000972
2430.53	0.0011992
2440.18	0.0011226
2449.82	0.0009771
2459.47	0.0011281
2469.11	0.0007449
2478.75	0.00103
2488.4	0.0007578
2498.04	0.0009118
2507.69	0.0010378
2517.33	0.001012
2526.98	0.0010771
2536.62	0.0010676
2546.27	0.0008133
2555.91	0.000818
2565.56	0.0009914
2575.2	0.0011718
2584.85	0.0010991
2594.49	0.0010985
2604.14	0.0012194
2613.78	0.0009761
2623.43	0.0008631
2633.07	0.0011988
2642.72	0.0010101
2652.36	0.0009124
2662.01	0.0009706
2671.65	0.001008
2681.29	0.0009479
2690.94	0.0009638
2700.58	0.0007412
2710.23	0.0010086
2719.87	0.0007383
2729.52	0.0009891
2739.16	0.000664
2748.81	0.001035
2758.45	0.0009685
2768.1	0.0009152
2777.74	0.0010264
2787.39	0.0010563
2797.03	0.0010643
2806.68	0.0013042
2816.32	0.0008879
2825.97	0.0011073
2835.61	0.0008836
2845.26	0.001846
2854.9	0.001966
2864.55	0.002856
2874.19	0.002846
2883.84	0.002446
2893.48	0.002646
2903.12	0.003216
2912.77	0.004046
2922.41	0.005706
2932.06	0.008746
2941.7	0.009286
2951.35	0.008326
2960.99	0.005946
2970.64	0.003756
2980.28	0.002486
2989.93	0.002476
2999.57	0.002396
3009.22	0.003806
3018.86	0.005756
3028.51	0.011026
3038.15	0.012476
3047.8	0.007466
3057.44	0.006186
3067.09	0.010606
3076.73	0.012136
3086.38	0.008106
3096.02	0.006046
3105.67	0.004236
3115.31	0.003136
3124.95	0.0014102
3134.6	0.0012893
3144.24	0.001162
3153.89	0.0014374
3163.53	0.0011604
3173.18	0.0009085
3182.82	0.0013665
3192.47	0.0009554
3202.11	0.0008567
3211.76	0.0006085
3221.4	0.00043
3231.05	0.0010726
3240.69	0.0008736
3250.34	0.0007299
3259.98	0.0006697
3269.63	0.00035
3279.27	0.000322
3288.92	0.000815
3298.56	0.000225
3308.21	0.0006316
3317.85	0.00103
3327.49	0.0004405
3337.14	0.001105
3346.78	0.000386
3356.43	0.0004274
3366.07	0.0009557
3375.72	0.000358
3385.36	0.0007108
3395.01	0.0007871
3404.65	0.000235
3414.3	0.0006454
3423.94	0.0007596
3433.59	0.0011503
3443.23	0.0004181
3452.88	0.00053851
3462.52	0.00054762
3472.17	0.0004103
3481.81	0.0007936
3491.46	0.0007293
3501.1	0.0005603
3510.75	0.0006012
3520.39	0.0006061
3530.04	0.0006861
3539.68	0.0005857
3549.32	0.00038
3558.97	0.0009713
3568.61	0.0008384
3578.26	0.0010551
3587.9	0.0008976
3597.55	0.002086
3607.19	0.001916
3616.84	0.0012958
3626.48	0.001746
3636.13	0.002166
3645.77	0.002386
3655.42	0.003456
3665.06	0.002516
3674.71	0.002286
3684.35	0.001506
3694	0.001736
3703.64	0.0004822
3713.29	0.0010949
3722.93	0.0012862
3732.58	0.0010395
3742.22	0.0011867
3751.86	0.0008653
3761.51	0.000603
3771.15	0.0005838
3780.8	0.0004257
3790.44	0.0005602
3800.09	0.0006085
3809.73	0.0003735
3819.38	0.000963
3829.02	0.0010305
3838.67	0.001095
3848.31	0.0008174
3857.96	0.0007531
3867.6	0.0008572
3877.25	0.0008849
3886.89	0.0007705
3896.54	0.00055274
3906.18	0.0005637
3915.83	0.0010699
3925.47	0.0006511
3935.12	0.0010298
3944.76	0.000625
3954.41	0.000592
3964.05	0.0010036
3973.69	0.0010415
3983.34	0.0009361
3992.98	0.0006373
