Infrared Spectrum: 2,4,5-Trifluorobenzoyl chloride
Formula: C 7 H 2 Cl F 3 O
CAS: 88419-56-1
State: gas
Origin: EPA-IR VAPOR PHASE LIBRARY
1/CM	ABSORBANCE
549.8	0.029024
559.445	0.018104
569.09	0.008084
578.734	0.011624
588.379	0.012584
598.024	0.012714
607.669	0.016834
617.313	0.026044
626.958	0.025424
636.603	0.008694
646.248	0.004264
655.893	0.006944
665.537	0.010154
675.182	0.007214
684.827	0.004584
694.472	0.005304
704.116	0.007204
713.761	0.011134
723.406	0.016844
733.051	0.012264
742.695	0.006124
752.34	0.004904
761.985	0.009414
771.63	0.022194
781.275	0.062394
790.919	0.074544
800.564	0.075654
810.209	0.094334
819.854	0.053184
829.498	0.031164
839.143	0.029124
848.788	0.044064
858.433	0.057734
868.078	0.062574
877.722	0.061884
887.367	0.053784
897.012	0.033014
906.657	0.018004
916.301	0.013454
925.946	0.008334
935.591	0.006384
945.236	0.004644
954.88	0.003354
964.525	0.003984
974.17	0.003264
983.815	0.001974
993.46	0.002404
1003.1	0.0010029
1012.75	0.002234
1022.39	0.0013576
1032.04	0.002914
1041.68	0.002814
1051.33	0.002684
1060.97	0.004754
1070.62	0.005574
1080.26	0.006374
1089.91	0.009094
1099.55	0.022274
1109.2	0.061474
1118.84	0.138834
1128.49	0.141494
1138.13	0.070164
1147.78	0.048394
1157.42	0.056334
1167.07	0.033494
1176.71	0.011244
1186.36	0.007624
1196	0.010464
1205.64	0.028894
1215.29	0.054154
1224.93	0.054654
1234.58	0.023304
1244.22	0.009684
1253.87	0.009114
1263.51	0.010134
1273.16	0.014354
1282.8	0.018134
1292.45	0.016514
1302.09	0.013964
1311.74	0.018774
1321.38	0.048324
1331.03	0.093704
1340.67	0.088174
1350.32	0.033574
1359.96	0.015134
1369.61	0.010214
1379.25	0.006924
1388.9	0.006094
1398.54	0.007974
1408.18	0.017604
1417.83	0.052994
1427.47	0.069814
1437.12	0.028314
1446.76	0.010234
1456.41	0.010084
1466.05	0.009144
1475.7	0.010214
1485.34	0.015774
1494.99	0.038464
1504.63	0.116464
1514.28	0.218774
1523.92	0.153334
1533.57	0.047784
1543.21	0.019504
1552.86	0.010894
1562.5	0.012434
1572.15	0.016254
1581.79	0.015194
1591.44	0.018774
1601.08	0.050114
1610.73	0.094124
1620.37	0.067434
1630.01	0.031764
1639.66	0.016254
1649.3	0.011524
1658.95	0.009094
1668.59	0.007164
1678.24	0.006854
1687.88	0.006824
1697.53	0.008194
1707.17	0.009024
1716.82	0.010064
1726.46	0.012474
1736.11	0.017354
1745.75	0.026014
1755.4	0.044654
1765.04	0.058974
1774.69	0.056754
1784.33	0.067464
1793.98	0.137624
1803.62	0.126874
1813.27	0.045024
1822.91	0.027694
1832.55	0.016494
1842.2	0.008314
1851.84	0.005004
1861.49	0.003594
1871.13	0.003094
1880.78	0.003284
1890.42	0.003234
1900.07	0.003234
1909.71	0.002644
1919.36	0.002414
1929	0.002034
1938.65	0.002054
1948.29	0.002224
1957.94	0.002364
1967.58	0.002004
1977.23	0.001974
1986.87	0.002194
1996.52	0.002204
2006.16	0.001974
2015.81	0.0016084
2025.45	0.0016163
2035.1	0.001694
2044.74	0.0015957
2054.38	0.0014624
2064.03	0.001734
2073.67	0.0015684
2083.32	0.001664
2092.96	0.0009633
2102.61	0.0013536
2112.25	0.0013196
2121.9	0.001315
2131.54	0.0013059
2141.19	0.0015527
2150.83	0.001634
2160.48	0.0015209
2170.12	0.0013398
2179.77	0.0011184
2189.41	0.0011021
2199.06	0.0014547
2208.7	0.0009946
2218.35	0.0014295
2227.99	0.001994
2237.64	0.002254
2247.28	0.002164
2256.92	0.002024
2266.57	0.0014327
2276.21	0.0014087
2285.86	0.001694
2295.5	0.001634
2305.15	0.0014827
2314.79	0.0015004
2324.44	0.001774
2334.08	0.001724
2343.73	0.002034
2353.37	0.001934
2363.02	0.001864
2372.66	0.002224
2382.31	0.001894
2391.95	0.0015104
2401.6	0.0011968
2411.24	0.0011747
2420.89	0.001409
2430.53	0.0014129
2440.18	0.0016109
2449.82	0.001694
2459.47	0.0013913
2469.11	0.001531
2478.75	0.0014935
2488.4	0.0015345
2498.04	0.0014872
2507.69	0.0015897
2517.33	0.001328
2526.98	0.0014494
2536.62	0.0015229
2546.27	0.002564
2555.91	0.002124
2565.56	0.002124
2575.2	0.002004
2584.85	0.001804
2594.49	0.0015142
2604.14	0.001844
2613.78	0.001794
2623.43	0.002194
2633.07	0.002204
2642.72	0.002134
2652.36	0.002014
2662.01	0.001764
2671.65	0.002044
2681.29	0.0014902
2690.94	0.0013714
2700.58	0.001634
2710.23	0.0015981
2719.87	0.001664
2729.52	0.002164
2739.16	0.001634
2748.81	0.001654
2758.45	0.0014998
2768.1	0.001276
2777.74	0.001132
2787.39	0.0014514
2797.03	0.0014687
2806.68	0.001714
2816.32	0.0013109
2825.97	0.001461
2835.61	0.0012569
2845.26	0.0015791
2854.9	0.0010896
2864.55	0.0013943
2874.19	0.0015702
2883.84	0.0011438
2893.48	0.0011811
2903.12	0.0013051
2912.77	0.0010765
2922.41	0.001108
2932.06	0.0012468
2941.7	0.0014086
2951.35	0.0016167
2960.99	0.0012656
2970.64	0.0010982
2980.28	0.000384
2989.93	0.0010621
2999.57	0.000871
3009.22	0.0008516
3018.86	0.0009097
3028.51	0.0014511
3038.15	0.001155
3047.8	0.0010698
3057.44	0.001824
3067.09	0.002574
3076.73	0.005724
3086.38	0.005844
3096.02	0.003904
3105.67	0.002434
3115.31	0.001914
3124.95	0.0014389
3134.6	0.0015923
3144.24	0.001854
3153.89	0.001684
3163.53	0.0016026
3173.18	0.0009335
3182.82	0.0013295
3192.47	0.00072274
3202.11	0.0009098
3211.76	0.0007317
3221.4	0.0005269
3231.05	0.0011541
3240.69	0.0012767
3250.34	0.001724
3259.98	0.0011914
3269.63	0.00068292
3279.27	0.0011726
3288.92	0.000247
3298.56	0.0010018
3308.21	0.0005575
3317.85	0.0009568
3327.49	0.0008398
3337.14	0.001864
3346.78	0.0008702
3356.43	0.0010564
3366.07	0.0013631
3375.72	0.00065758
3385.36	0.0013833
3395.01	0.0015714
3404.65	0.0006012
3414.3	0.0010503
3423.94	0.0010322
3433.59	0.0005863
3443.23	0.000173
3452.88	0.00037
3462.52	0.0009177
3472.17	0.002094
3481.81	0.0015474
3491.46	0.0011425
3501.1	0.0012483
3510.75	0.002054
3520.39	0.0007318
3530.04	0.001884
3539.68	0.0014782
3549.32	0.001624
3558.97	0.001754
3568.61	0.002574
3578.26	0.002254
3587.9	0.002414
3597.55	0.001634
3607.19	0.001834
3616.84	0.000519
3626.48	0.0011804
3636.13	0.0010505
3645.77	0.0010951
3655.42	0.0009055
3665.06	0.0005417
3674.71	0.0008863
3684.35	0.0011101
3694	0.0007659
3703.64	0.001191
3713.29	0.0008599
3722.93	0.00071249
3732.58	0.001305
3742.22	0.0008407
3751.86	0.00071639
3761.51	0.0010876
3771.15	0.0005878
3780.8	0.0011323
3790.44	0.0010753
3800.09	0.0008128
3809.73	0.00045
3819.38	0.000486
3829.02	0.0008091
3838.67	0.000461
3848.31	0.0008661
3857.96	0.0008299
3867.6	6.7e-05
3877.25	0.0011067
3886.89	0.0013582
3896.54	0.0010849
3906.18	0.000309
3915.83	0.00071138
3925.47	0.0007882
3935.12	0.0013346
3944.76	0.0007701
3954.41	0.0015353
3964.05	0.001255
3973.69	0.0014085
3983.34	0.0012009
3992.98	0.0011209
