Infrared Spectrum: 4-ETHOXY-2-NITRO ACETANILIDE
Formula: C10 H12 N2 O4
CAS: 885-81-4
State: SOLID (MINERAL OIL MULL)
Melting point: 103-104 C
Class: COBLENTZ
Instrument: Not specified, most likely a prism, grating, or hybrid spectrometer.
Sampling: TRANSMISSION
Resolution: 4
Origin: WYANDOTTE CHEMICALS CORP., WYANDOTTE, MICHIGAN, USA
MICROMETERS	TRANSMITTANCE
2.04	0.526
2.07981	0.531
2.11962	0.538
2.15943	0.536
2.19923	0.533
2.23904	0.538
2.27885	0.541
2.31866	0.546
2.35847	0.55
2.39828	0.551
2.43809	0.561
2.47789	0.568
2.5177	0.568
2.55751	0.57
2.59732	0.573
2.63713	0.578
2.67694	0.578
2.71675	0.57
2.75655	0.565
2.79636	0.561
2.83617	0.56
2.87598	0.551
2.91579	0.551
2.9556	0.545
2.99541	0.43
3.03521	0.543
3.07502	0.568
3.11483	0.58
3.15464	0.593
3.19445	0.586
3.23426	0.576
3.27407	0.591
3.31387	0.485
3.35368	0.096
3.39349	0.03
3.4333	0.058
3.47311	0.106
3.51292	0.146
3.55273	0.59
3.59253	0.671
3.63234	0.708
3.67215	0.706
3.71196	0.721
3.75177	0.725
3.79158	0.733
3.83139	0.741
3.87119	0.75
3.911	0.763
3.95081	0.771
3.99062	0.78
4.03043	0.785
4.07024	0.788
4.11005	0.79
4.14985	0.79
4.18966	0.793
4.22947	0.793
4.26928	0.788
4.30909	0.8
4.3489	0.805
4.3887	0.825
4.42851	0.831
4.46832	0.84
4.50813	0.843
4.54794	0.846
4.58775	0.846
4.62756	0.851
4.66736	0.85
4.70717	0.86
4.74698	0.873
4.78679	0.873
4.8266	0.88
4.86641	0.886
4.90622	0.891
4.94602	0.89
4.98583	0.886
5.02564	0.898
5.06545	0.898
5.10526	0.908
5.14507	0.913
5.18488	0.916
5.22468	0.9
5.26449	0.911
5.3043	0.926
5.34411	0.94
5.38392	0.94
5.42373	0.946
5.46354	0.945
5.50334	0.948
5.54315	0.948
5.58296	0.931
5.62277	0.915
5.66258	0.915
5.70239	0.915
5.7422	0.908
5.782	0.87
5.82181	0.645
5.86162	0.333
5.90143	0.298
5.94124	0.64
5.98105	0.715
6.02086	0.733
6.06066	0.758
6.10047	0.726
6.14028	0.735
6.18009	0.75
6.2199	0.65
6.25971	0.431
6.29952	0.276
6.33932	0.598
6.37913	0.658
6.41894	0.55
6.45875	0.376
6.49856	0.196
6.53837	0.203
6.57818	0.125
6.61798	0.115
6.65779	0.153
6.6976	0.2
6.73741	0.213
6.77722	0.23
6.81703	0.115
6.85684	0.1
6.89664	0.153
6.93645	0.218
6.97626	0.271
7.01607	0.311
7.05588	0.37
7.09569	0.465
7.1355	0.486
7.1753	0.276
7.21511	0.316
7.25492	0.266
7.29473	0.23
7.33454	0.253
7.37435	0.376
7.41416	0.305
7.45396	0.211
7.49377	0.301
7.53358	0.29
7.57339	0.213
7.6132	0.133
7.65301	0.228
7.69282	0.336
7.73262	0.32
7.77243	0.153
7.81224	0.126
7.85205	0.203
7.89186	0.27
7.93167	0.306
7.97148	0.328
8.01128	0.261
8.05109	0.21
8.0909	0.28
8.13071	0.261
8.17052	0.355
8.21033	0.29
8.25014	0.205
8.28994	0.298
8.32975	0.381
8.36956	0.453
8.40937	0.491
8.44918	0.54
8.48899	0.576
8.5288	0.598
8.5686	0.62
8.60841	0.628
8.64822	0.591
8.68803	0.453
8.72784	0.345
8.76765	0.563
8.80746	0.63
8.84726	0.65
8.88707	0.661
8.92688	0.543
8.96669	0.458
9.0065	0.631
9.04631	0.681
9.08611	0.698
9.12592	0.713
9.16573	0.72
9.20554	0.718
9.24535	0.671
9.28516	0.463
9.32497	0.45
9.36477	0.623
9.40458	0.668
9.44439	0.658
9.4842	0.55
9.52401	0.375
9.56382	0.2
9.60363	0.186
9.64343	0.27
9.68324	0.38
9.72305	0.46
9.76286	0.521
9.80267	0.543
9.84248	0.528
9.88229	0.465
9.92209	0.431
9.9619	0.475
10.0017	0.538
10.0415	0.58
10.0813	0.606
10.1211	0.628
10.1609	0.638
10.2008	0.64
10.2406	0.561
10.2804	0.453
10.3202	0.465
10.36	0.488
10.3998	0.555
10.4396	0.615
10.4794	0.573
10.5192	0.421
10.559	0.431
10.5988	0.543
10.6386	0.598
10.6785	0.628
10.7183	0.641
10.7581	0.661
10.7979	0.673
10.8377	0.68
10.8775	0.688
10.9173	0.69
10.9571	0.693
10.9969	0.701
11.0367	0.708
11.0765	0.711
11.1164	0.69
11.1562	0.658
11.196	0.685
11.2358	0.701
11.2756	0.713
11.3154	0.718
11.3552	0.72
11.395	0.72
11.4348	0.718
11.4746	0.706
11.5144	0.69
11.5542	0.631
11.5941	0.515
11.6339	0.425
11.6737	0.56
11.7135	0.66
11.7533	0.7
11.7931	0.703
11.8329	0.701
11.8727	0.678
11.9125	0.618
11.9523	0.501
11.9921	0.401
12.0319	0.291
12.0718	0.373
12.1116	0.59
12.1514	0.693
12.1912	0.735
12.231	0.751
12.2708	0.76
12.3106	0.766
12.3504	0.768
12.3902	0.763
12.43	0.75
12.4698	0.708
12.5097	0.608
12.5495	0.493
12.5893	0.528
12.6291	0.636
12.6689	0.695
12.7087	0.735
12.7485	0.748
12.7883	0.76
12.8281	0.761
12.8679	0.761
12.9077	0.761
12.9475	0.761
12.9874	0.76
13.0272	0.755
13.067	0.748
13.1068	0.728
13.1466	0.655
13.1864	0.526
13.2262	0.548
13.266	0.675
13.3058	0.721
13.3456	0.738
13.3854	0.741
13.4252	0.741
13.4651	0.74
13.5049	0.74
13.5447	0.736
13.5845	0.735
13.6243	0.73
13.6641	0.73
13.7039	0.728
13.7437	0.72
13.7835	0.718
13.8233	0.713
13.8631	0.708
13.903	0.708
13.9428	0.71
13.9826	0.716
14.0224	0.718
14.0622	0.72
14.102	0.715
14.1418	0.71
14.1816	0.706
14.2214	0.695
14.2612	0.686
14.301	0.67
14.3408	0.653
14.3807	0.638
14.4205	0.626
14.4603	0.62
14.5001	0.61
14.5399	0.596
14.5797	0.576
14.6195	0.551
14.6593	0.53
14.6991	0.506
14.7389	0.491
14.7787	0.471
14.8185	0.466
14.8584	0.48
14.8982	0.511
14.938	0.538
14.9778	0.556
15.0176	0.556
15.0574	0.55
15.0972	0.561
15.137	0.581
15.1768	0.586
15.2166	0.598
15.2564	0.601
15.2963	0.61
15.3361	0.613
15.3759	0.62
15.4157	0.621
15.4555	0.616
15.4953	0.621
15.5351	0.621
15.5749	0.626
15.6147	0.62
15.6545	0.62
15.6943	0.62
15.7341	0.616
15.774	0.613
15.8138	0.606
15.8536	0.6
15.8934	0.595
15.9332	0.585
15.973	0.578
