Infrared Spectrum: 2-Chloro-4-fluorobenzamide
Formula: C 7 H 5 Cl F N O
CAS: 88578-90-9
State: gas
Origin: EPA-IR VAPOR PHASE LIBRARY
1/CM	ABSORBANCE
549.8	0.00436
559.445	0.00584
569.09	0.00613
578.734	0.00546
588.379	0.0043
598.024	0.00284
607.669	0.0023116
617.313	0.0023392
626.958	0.001849
636.603	0.001026
646.248	0.0020307
655.893	0.0020391
665.537	0.00248
675.182	0.00436
684.827	0.00403
694.472	0.00473
704.116	0.00362
713.761	0.00266
723.406	0.0031
733.051	0.00243
742.695	0.00329
752.34	0.00262
761.985	0.00516
771.63	0.00432
781.275	0.00387
790.919	0.003
800.564	0.00336
810.209	0.00456
819.854	0.00518
829.498	0.00523
839.143	0.00503
848.788	0.00546
858.433	0.00965
868.078	0.00876
877.722	0.0059
887.367	0.00562
897.012	0.00968
906.657	0.0158
916.301	0.01046
925.946	0.00448
935.591	0.0035
945.236	0.00271
954.88	0.00279
964.525	0.0023106
974.17	0.00322
983.815	0.0021798
993.46	0.0016635
1003.1	0.0016796
1012.75	0.0020543
1022.39	0.00272
1032.04	0.00461
1041.68	0.00594
1051.33	0.00293
1060.97	0.0029
1070.62	0.00322
1080.26	0.00256
1089.91	0.00298
1099.55	0.00416
1109.2	0.00433
1118.84	0.00393
1128.49	0.00567
1138.13	0.00386
1147.78	0.00311
1157.42	0.00376
1167.07	0.0021093
1176.71	0.00237
1186.36	0.00413
1196	0.00464
1205.64	0.00886
1215.29	0.01462
1224.93	0.00903
1234.58	0.00412
1244.22	0.00509
1253.87	0.0112
1263.51	0.01247
1273.16	0.0082
1282.8	0.00715
1292.45	0.00585
1302.09	0.00522
1311.74	0.00533
1321.38	0.00717
1331.03	0.01378
1340.67	0.02404
1350.32	0.02006
1359.96	0.00894
1369.61	0.00643
1379.25	0.00686
1388.9	0.00988
1398.54	0.01106
1408.18	0.00643
1417.83	0.00341
1427.47	0.00248
1437.12	0.00269
1446.76	0.00321
1456.41	0.0035
1466.05	0.00392
1475.7	0.00706
1485.34	0.0126
1494.99	0.00986
1504.63	0.00355
1514.28	0.0023307
1523.92	0.0023297
1533.57	0.00243
1543.21	0.00278
1552.86	0.00433
1562.5	0.00733
1572.15	0.01433
1581.79	0.027
1591.44	0.03371
1601.08	0.02828
1610.73	0.0157
1620.37	0.00672
1630.01	0.0042
1639.66	0.00378
1649.3	0.0037
1658.95	0.00399
1668.59	0.00476
1678.24	0.0068
1687.88	0.00977
1697.53	0.0168
1707.17	0.03165
1716.82	0.03773
1726.46	0.02602
1736.11	0.01983
1745.75	0.01417
1755.4	0.00749
1765.04	0.0039
1774.69	0.00272
1784.33	0.00234
1793.98	0.0019229
1803.62	0.0018276
1813.27	0.0017558
1822.91	0.0014663
1832.55	0.0015412
1842.2	0.00135489
1851.84	0.0013492
1861.49	0.0013293
1871.13	0.001207
1880.78	0.0012506
1890.42	0.0016232
1900.07	0.0014622
1909.71	0.001164
1919.36	0.001066
1929	0.00143346
1938.65	0.0012898
1948.29	0.001045
1957.94	0.0012714
1967.58	0.001047
1977.23	0.001005
1986.87	0.001156
1996.52	0.001074
2006.16	0.001206
2015.81	0.001074
2025.45	0.001167
2035.1	0.0012785
2044.74	0.0012634
2054.38	0.001184
2064.03	0.001146
2073.67	0.000956
2083.32	0.001048
2092.96	0.000979
2102.61	0.001007
2112.25	0.001146
2121.9	0.001024
2131.54	0.001064
2141.19	0.00102
2150.83	0.000953
2160.48	0.000879
2170.12	0.000855
2179.77	0.001202
2189.41	0.000968
2199.06	0.001115
2208.7	0.00121
2218.35	0.000825
2227.99	0.00075
2237.64	0.000755
2247.28	0.00113
2256.92	0.00093
2266.57	0.00104
2276.21	0.000877
2285.86	0.000785
2295.5	0.000662
2305.15	0.001034
2314.79	0.000646
2324.44	0.000774
2334.08	0.00082
2343.73	0.000632
2353.37	0.000709
2363.02	0.000635
2372.66	0.000622
2382.31	0.000702
2391.95	0.000938
2401.6	0.001049
2411.24	0.001199
2420.89	0.001043
2430.53	0.000668
2440.18	0.00113
2449.82	0.000886
2459.47	0.000788
2469.11	0.001148
2478.75	0.000885
2488.4	0.001035
2498.04	0.000941
2507.69	0.000825
2517.33	0.000625
2526.98	0.000574
2536.62	0.000811
2546.27	0.000902
2555.91	0.00109
2565.56	0.000656
2575.2	0.000915
2584.85	0.000934
2594.49	0.000348
2604.14	0.000669
2613.78	0.001086
2623.43	0.000427
2633.07	0.000636
2642.72	0.001002
2652.36	0.000632
2662.01	0.00089
2671.65	0.000868
2681.29	0.001014
2690.94	0.0012581
2700.58	0.000746
2710.23	0.00012
2719.87	0.000743
2729.52	0.00103
2739.16	0.001123
2748.81	0.000557
2758.45	0.000627
2768.1	0.000932
2777.74	0.000662
2787.39	0.000537
2797.03	0.000742
2806.68	0.00034
2816.32	0.000845
2825.97	0.000563
2835.61	0.000692
2845.26	0.000537
2854.9	0.000806
2864.55	0.00033
2874.19	0.000449
2883.84	0.000914
2893.48	0.0002
2903.12	0.001011
2912.77	0.000758
2922.41	0
2932.06	0.000534
2941.7	0.000852
2951.35	0.000392
2960.99	0.00032
2970.64	0.000538
2980.28	0.000718
2989.93	0.000497
2999.57	0.000769
3009.22	0.000889
3018.86	0.00016
3028.51	0.00084
3038.15	0.001067
3047.8	0.00076
3057.44	0.000507
3067.09	0.0012887
3076.73	0.001025
3086.38	0.0013177
3096.02	0.000759
3105.67	0.001009
3115.31	0.000974
3124.95	0.001129
3134.6	0.000576
3144.24	0.000898
3153.89	0.00111
3163.53	0.0012619
3173.18	0.000431
3182.82	0.000888
3192.47	0.000732
3202.11	0.00066
3211.76	0.001067
3221.4	0.000891
3231.05	0.001188
3240.69	0.001002
3250.34	0.000726
3259.98	0.000935
3269.63	0.001056
3279.27	0.000551
3288.92	0.000791
3298.56	0.000906
3308.21	0.001174
3317.85	0.00122
3327.49	0.001008
3337.14	0.00025
3346.78	0.001065
3356.43	0.0015646
3366.07	0.0017058
3375.72	0.001164
3385.36	0.0015814
3395.01	0.00247
3404.65	0.00247
3414.3	0.00321
3423.94	0.00476
3433.59	0.0054
3443.23	0.00338
3452.88	0.0016947
3462.52	0.0021369
3472.17	0.00083
3481.81	0.0017844
3491.46	0.0014482
3501.1	0.00248
3510.75	0.0020797
3520.39	0.0027
3530.04	0.00408
3539.68	0.00536
3549.32	0.00744
3558.97	0.00602
3568.61	0.00263
3578.26	0.0016959
3587.9	0.000802
3597.55	0.0019221
3607.19	0.000737
3616.84	0.00057
3626.48	0.000968
3636.13	0.0016379
3645.77	0.001184
3655.42	0.001149
3665.06	0.000769
3674.71	0.000448
3684.35	0.000858
3694	0.001006
3703.64	0.000362
3713.29	0.00136199
3722.93	0.000962
3732.58	0.000962
3742.22	0.000913
3751.86	0.001196
3761.51	0.001247
3771.15	0.000731
3780.8	0.001195
3790.44	0.000615
3800.09	0.0016492
3809.73	0.00027
3819.38	0.000733
3829.02	0.0014889
3838.67	0.000998
3848.31	0.00113
3857.96	0.000778
3867.6	0.001119
3877.25	0.000665
3886.89	0.001074
3896.54	0.001049
3906.18	0.00107
3915.83	0.000777
3925.47	0.000516
3935.12	0.000785
3944.76	0.00133482
3954.41	0.001148
3964.05	0.00139729
3973.69	0.000786
3983.34	0.0019736
3992.98	0.001064
