Infrared Spectrum: 3,5-Bis(trifluoromethyl)phenylhydrazin
Formula: C 8 H 6 F 6 N 2
CAS: 886-35-1
State: gas
Origin: EPA-IR VAPOR PHASE LIBRARY
1/CM	ABSORBANCE
549.8	0.03285
559.445	0.02732
569.09	0.02197
578.734	0.01994
588.379	0.01956
598.024	0.02297
607.669	0.02919
617.313	0.02903
626.958	0.02564
636.603	0.0227
646.248	0.02411
655.893	0.03054
665.537	0.04046
675.182	0.08267
684.827	0.18964
694.472	0.08284
704.116	0.09822
713.761	0.06434
723.406	0.06264
733.051	0.04644
742.695	0.01997
752.34	0.01908
761.985	0.02278
771.63	0.02559
781.275	0.0286
790.919	0.03376
800.564	0.04227
810.209	0.05684
819.854	0.07266
829.498	0.08353
839.143	0.10757
848.788	0.09765
858.433	0.08364
868.078	0.13035
877.722	0.14953
887.367	0.06727
897.012	0.04529
906.657	0.03649
916.301	0.03198
925.946	0.03221
935.591	0.02765
945.236	0.02061
954.88	0.0145
964.525	0.01156
974.17	0.01223
983.815	0.01526
993.46	0.02665
1003.1	0.02475
1012.75	0.01227
1022.39	0.00874
1032.04	0.00835
1041.68	0.0081
1051.33	0.00976
1060.97	0.01198
1070.62	0.01651
1080.26	0.02701
1089.91	0.06243
1099.55	0.08959
1109.2	0.0728
1118.84	0.07353
1128.49	0.12974
1138.13	0.40259
1147.78	1.02478
1157.42	0.78536
1167.07	0.31271
1176.71	0.70044
1186.36	0.82146
1196	0.30076
1205.64	0.11977
1215.29	0.09018
1224.93	0.07332
1234.58	0.0828
1244.22	0.09102
1253.87	0.11691
1263.51	0.25356
1273.16	0.87126
1282.8	1.10374
1292.45	0.17611
1302.09	0.05984
1311.74	0.04081
1321.38	0.03918
1331.03	0.03368
1340.67	0.033
1350.32	0.04315
1359.96	0.07975
1369.61	0.19838
1379.25	0.42101
1388.9	0.3628
1398.54	0.13113
1408.18	0.0728
1417.83	0.07546
1427.47	0.06835
1437.12	0.0409
1446.76	0.03771
1456.41	0.08137
1466.05	0.12672
1475.7	0.07516
1485.34	0.03475
1494.99	0.03129
1504.63	0.03323
1514.28	0.0222
1523.92	0.01565
1533.57	0.01373
1543.21	0.01322
1552.86	0.01409
1562.5	0.01471
1572.15	0.01792
1581.79	0.01984
1591.44	0.0233
1601.08	0.04156
1610.73	0.08987
1620.37	0.1202
1630.01	0.08186
1639.66	0.05769
1649.3	0.03928
1658.95	0.02295
1668.59	0.01483
1678.24	0.01067
1687.88	0.00905
1697.53	0.00845
1707.17	0.00775
1716.82	0.00783
1726.46	0.0087
1736.11	0.01177
1745.75	0.01761
1755.4	0.01672
1765.04	0.01049
1774.69	0.00793
1784.33	0.00716
1793.98	0.0067
1803.62	0.0054
1813.27	0.00483
1822.91	0.00463
1832.55	0.00387
1842.2	0.00323
1851.84	0.00339
1861.49	0.00351
1871.13	0.00351
1880.78	0.0037
1890.42	0.00377
1900.07	0.00373
1909.71	0.00383
1919.36	0.00368
1929	0.00343
1938.65	0.00331
1948.29	0.00334
1957.94	0.00277
1967.58	0.00276
1977.23	0.00332
1986.87	0.00394
1996.52	0.00404
2006.16	0.00367
2015.81	0.00368
2025.45	0.00329
2035.1	0.00266
2044.74	0.00198
2054.38	0.00201
2064.03	0.00193
2073.67	0.0022
2083.32	0.00244
2092.96	0.00267
2102.61	0.00293
2112.25	0.00304
2121.9	0.00293
2131.54	0.00244
2141.19	0.00207
2150.83	0.00206
2160.48	0.00202
2170.12	0.00216
2179.77	0.00202
2189.41	0.00229
2199.06	0.00249
2208.7	0.00292
2218.35	0.00328
2227.99	0.00373
2237.64	0.0038
2247.28	0.00376
2256.92	0.00362
2266.57	0.00431
2276.21	0.00446
2285.86	0.00468
2295.5	0.00411
2305.15	0.00321
2314.79	0.00319
2324.44	0.00327
2334.08	0.00319
2343.73	0.00321
2353.37	0.00338
2363.02	0.00307
2372.66	0.00272
2382.31	0.00262
2391.95	0.00233
2401.6	0.00207
2411.24	0.00224
2420.89	0.00241
2430.53	0.00237
2440.18	0.00184
2449.82	0.00191
2459.47	0.0018
2469.11	0.00171
2478.75	0.00146
2488.4	0.00153
2498.04	0.00198
2507.69	0.00212
2517.33	0.00238
2526.98	0.00207
2536.62	0.00201
2546.27	0.00186
2555.91	0.00237
2565.56	0.00257
2575.2	0.00245
2584.85	0.0025
2594.49	0.00193
2604.14	0.00174
2613.78	0.00151
2623.43	0.00162
2633.07	0.00241
2642.72	0.0027
2652.36	0.0028
2662.01	0.00225
2671.65	0.00155
2681.29	0.00117
2690.94	0.0011352
2700.58	0.0012
2710.23	0.00115
2719.87	0.0008886
2729.52	0.0008881
2739.16	0.0008862
2748.81	0.0007652
2758.45	0.0009426
2768.1	0.0009316
2777.74	0.0010731
2787.39	0.0008531
2797.03	0.0010364
2806.68	0.00138
2816.32	0.001103
2825.97	0.0009871
2835.61	0.0009937
2845.26	0.00114
2854.9	0.00153
2864.55	0.00175
2874.19	0.00169
2883.84	0.00207
2893.48	0.00209
2903.12	0.00183
2912.77	0.00217
2922.41	0.00242
2932.06	0.002
2941.7	0.00164
2951.35	0.00122
2960.99	0.0009862
2970.64	0.0011339
2980.28	0.0015
2989.93	0.00173
2999.57	0.00199
3009.22	0.00166
3018.86	0.0017
3028.51	0.00174
3038.15	0.00285
3047.8	0.0054
3057.44	0.00588
3067.09	0.00326
3076.73	0.00286
3086.38	0.00359
3096.02	0.00352
3105.67	0.0025
3115.31	0.0018
3124.95	0.0013
3134.6	0.0007086
3144.24	0.0011047
3153.89	0.0007588
3163.53	0.0005498
3173.18	0.0007608
3182.82	0.0007106
3192.47	0.0008769
3202.11	0.00114
3211.76	0.00119
3221.4	0.00154
3231.05	0.00157
3240.69	0.00165
3250.34	0.00152
3259.98	0.00141
3269.63	0.0014
3279.27	0.00143
3288.92	0.00179
3298.56	0.00236
3308.21	0.00338
3317.85	0.00387
3327.49	0.00285
3337.14	0.00173
3346.78	0.0022
3356.43	0.00233
3366.07	0.00494
3375.72	0.01147
3385.36	0.01597
3395.01	0.01146
3404.65	0.00953
3414.3	0.0112
3423.94	0.01713
3433.59	0.02522
3443.23	0.02046
3452.88	0.00905
3462.52	0.00465
3472.17	0.0034
3481.81	0.00264
3491.46	0.00216
3501.1	0.00189
3510.75	0.00158
3520.39	0.0012
3530.04	0.00173
3539.68	0.00143
3549.32	0.00145
3558.97	0.00126
3568.61	0.000879
3578.26	0.00117
3587.9	0.00127
3597.55	0.0008954
3607.19	0.00117
3616.84	0.0007357
3626.48	0.0007169
3636.13	0.0010541
3645.77	0.0008587
3655.42	0.00091
3665.06	0.0007317
3674.71	0.0009263
3684.35	0.0003608
3694	0.0006607
3703.64	0.0006333
3713.29	0.0007553
3722.93	0.0007926
3732.58	0.0007314
3742.22	0.0005931
3751.86	0.0003471
3761.51	0.000576
3771.15	0.0006886
3780.8	0.0004671
3790.44	0.0007982
3800.09	0.000347
3809.73	0.0002738
3819.38	0.000365
3829.02	0.0006089
3838.67	0.0004056
3848.31	0.0004862
3857.96	0.0006162
3867.6	0.0008215
3877.25	0.0007135
3886.89	0.0004695
3896.54	6.97e-05
3906.18	0.0005647
3915.83	0.000653
3925.47	0.0007992
3935.12	0.0003079
3944.76	0.0008051
3954.41	0.0008381
3964.05	0.0004582
3973.69	0.0004203
3983.34	0.0003183
3992.98	0.000582
