Infrared Spectrum: 1,4-Diphenyl-1,3-Butadiene
Formula: C 16 H 14
CAS: 886-65-7
State: gas
Instrument: HP-GC/MS/IRD
Origin: NIST Mass Spectrometry Data Center
1/CM	ABSORBANCE
550	0.0012452
562	0.0001584
574	0.0001672
586	0.0002244
598	0.0002156
610	0.0004708
622	0.0011748
634	0.0025476
646	0.0017512
658	0.004026
670	0.0093588
682	0.0206932
694	0.0264176
706	0.0168476
718	0.014234
730	0.0280896
742	0.0277068
754	0.010428
766	0.0051964
778	0.0032252
790	0.0019008
802	0.0018524
814	0.0033132
826	0.0035288
838	0.0018304
850	0.0010472
862	0.0010252
874	0.001584
886	0.001892
898	0.0031328
910	0.0031372
922	0.0021868
934	0.0023056
946	0.0042152
958	0.0101068
970	0.022198
982	0.0272492
994	0.0124124
1006	0.0043252
1018	0.0041536
1030	0.0059268
1042	0.0016808
1054	0.0018568
1066	0.0029084
1078	0.0020548
1090	0.0011616
1102	0.0006116
1114	0.00022
1126	0.000176
1138	0.0003652
1150	0.0005236
1162	0.0003652
1174	0.0006864
1186	0.0004928
1198	0.000352
1210	0.0005016
1222	0.0006952
1234	0.00099
1246	0.0008096
1258	0.0006116
1270	0.00022
1282	0.0007084
1294	0.0009152
1306	0.0011616
1318	0.0009372
1330	0.000902
1342	0.0005236
1354	0.000374
1366	0.0004048
1378	0.000374
1390	0.0002068
1402	0.0004752
1414	0.0008096
1426	0.0018348
1438	0.0041536
1450	0.004928
1462	0.0026972
1474	0.003982
1486	0.0125224
1498	0.015356
1510	0.0019844
1522	0.0009416
1534	0.000792
1546	0.0006864
1558	0.0011792
1570	0.0026136
1582	0.005742
1594	0.0135652
1606	0.0075768
1618	0.004532
1630	0.0014608
1642	0.001144
1654	0.0015928
1666	0.0020768
1678	0.0013772
1690	0.0010824
1702	0.0008624
1714	0.0013112
1726	0.0021516
1738	0.00275
1750	0.0027412
1762	0.0015664
1774	0.0019316
1786	0.002552
1798	0.002156
1810	0.0018392
1822	0.001694
1834	0.0025036
1846	0.0028732
1858	0.0018744
1870	0.0020416
1882	0.0024684
1894	0.0009504
1906	0.0008096
1918	0.0013684
1930	0.0020196
1942	0.0026752
1954	0.002662
1966	0.0006688
1978	0.0003036
1990	0.0001804
2002	0.0001452
2014	0.0001232
2026	0.0001144
2038	0.0001012
2050	9.24e-05
2062	0.0001232
2074	0.0001276
2086	0.0001056
2098	7.92e-05
2110	8.36e-05
2122	9.24e-05
2134	7.04e-05
2146	0.0001232
2158	0.0001672
2170	0.0001716
2182	0.0001496
2194	0.000176
2206	0.0001496
2218	0.0001628
2230	0.0001716
2242	0.0001672
2254	0.000176
2266	0.0001452
2278	0.0001804
2290	0.0001716
2302	0.0002288
2314	0.00066
2326	0.0003872
2338	0.0003828
2350	0.0003168
2362	0.0002684
2374	0.0002156
2386	0.000176
2398	0.0001584
2410	0.0001584
2422	0.0002552
2434	0.0002684
2446	0.0002376
2458	0.0002156
2470	0.0001584
2482	0.0001672
2494	0.0002332
2506	0.0002068
2518	0.0002332
2530	0.0002156
2542	0.0001936
2554	0.0002244
2566	0.0002464
2578	0.000308
2590	0.0003828
2602	0.0003344
2614	0.000308
2626	0.0002596
2638	0.0001628
2650	0.0001804
2662	0.0001364
2674	0.000132
2686	0.00011
2698	9.24e-05
2710	0.0001452
2722	0.0001408
2734	0.0001496
2746	0.0001408
2758	0.0002332
2770	0.000286
2782	0.0003652
2794	0.0004268
2806	0.0004752
2818	0.0006248
2830	0.0007656
2842	0.0008316
2854	0.00077
2866	0.00088
2878	0.0009944
2890	0.0013772
2902	0.0014696
2914	0.0016632
2926	0.001914
2938	0.002222
2950	0.0020856
2962	0.0020108
2974	0.0023232
2986	0.0033792
2998	0.00638
3010	0.0126896
3022	0.0328548
3034	0.0393844
3046	0.0191048
3058	0.020152
3070	0.0420684
3082	0.0230164
3094	0.0161524
3106	0.0089936
3118	0.0033968
3130	0.0016588
3142	0.0013992
3154	0.0011132
3166	0.000594
3178	0.0005456
3190	0.0005148
3202	0.0003828
3214	0.0003432
3226	0.0002508
3238	0.0002376
3250	0.0002772
3262	0.000198
3274	0.0001408
3286	0.0001936
3298	0.0001848
3310	0.0002288
3322	0.0002244
3334	0.0001584
3346	0.0001936
3358	0.0001628
3370	0.0001628
3382	0.0002068
3394	0.0001672
3406	0.000198
3418	0.0001188
3430	0.0001584
3442	0.0001364
3454	0.0002156
3466	0.0001584
3478	0.0002068
3490	0.0001628
3502	0.0001584
3514	0.0001848
3526	0.0001144
3538	0.0001408
3550	0.0001628
3562	0.0002244
3574	0.000176
3586	7.92e-05
3598	0.000198
3610	0.0002508
3622	0.0002728
3634	0.0002816
3646	0.000396
3658	0.0003828
3670	0.0003212
3682	0.0003388
3694	0.0004004
3706	0.0004224
3718	0.0002904
3730	0.0002684
3742	0.0001672
3754	0.00022
3766	0.0002068
3778	0.0002728
3790	0.0002948
3802	0.000242
3814	0.0002508
3826	0.0003564
3838	0.000264
