Infrared Spectrum: Terbutryn
Formula: C 10 H 19 N 5 S
CAS: 886-50-0
State: gas
Instrument: HP-GC/MS/IRD
Origin: NIST Mass Spectrometry Data Center
1/CM	ABSORBANCE
550	0.0101752
562	0.004108
574	0.0027176
586	0.0021488
598	0.0017696
610	0.001264
622	0.0008848
634	0.0006952
646	0.000316
658	0.0004424
670	0.0015168
682	0.0004424
694	0.0006952
706	0.00158
718	0.0013272
730	0.0010112
742	0.0005056
754	0.0005056
766	0.0019592
778	0.0024648
790	0.0025912
802	0.0091008
814	0.0219936
826	0.0054352
838	0.003476
850	0.005372
862	0.0096064
874	0.0109336
886	0.0130192
898	0.0142832
910	0.0147256
922	0.0103016
934	0.0103648
946	0.0139672
958	0.0153576
970	0.01896
982	0.0218672
994	0.02054
1006	0.012008
1018	0.0084688
1030	0.008532
1042	0.0116288
1054	0.0150416
1066	0.0099856
1078	0.007268
1090	0.0065096
1102	0.0058776
1114	0.006952
1126	0.01106
1138	0.023384
1150	0.0302728
1162	0.0202872
1174	0.0190232
1186	0.0301464
1198	0.0422176
1210	0.0556792
1222	0.0899968
1234	0.0911976
1246	0.048664
1258	0.0328008
1270	0.0522032
1282	0.0566272
1294	0.0463888
1306	0.0579544
1318	0.0544152
1330	0.0695832
1342	0.095116
1354	0.080264
1366	0.106745
1378	0.102637
1390	0.0827288
1402	0.111358
1414	0.100994
1426	0.07584
1438	0.064464
1450	0.095116
1462	0.109336
1474	0.12779
1486	0.189916
1498	0.224929
1510	0.180689
1522	0.150416
1534	0.272582
1546	0.528478
1558	0.627829
1570	0.43134
1582	0.209129
1594	0.0816544
1606	0.0419016
1618	0.0256592
1630	0.017696
1642	0.012956
1654	0.0103016
1666	0.0083424
1678	0.0070152
1690	0.0061304
1702	0.0051192
1714	0.0040448
1726	0.0032232
1738	0.0027176
1750	0.002212
1762	0.0020856
1774	0.0020224
1786	0.0018328
1798	0.0017064
1810	0.0017696
1822	0.0020224
1834	0.002212
1846	0.0019592
1858	0.0017064
1870	0.0014536
1882	0.0012008
1894	0.0011376
1906	0.0010112
1918	0.0008848
1930	0.0007584
1942	0.0005688
1954	0.0004424
1966	0.0001896
1978	0.0001264
1990	0.0001896
2002	0.0002528
2014	0.000316
2026	0.0003792
2038	0.000316
2050	0.0002528
2062	0.0001896
2074	0.0001896
2086	0.000316
2098	0.0003792
2110	0.0003792
2122	0.0003792
2134	0.0002528
2146	0.0001264
2158	6.32e-05
2170	0.0001264
2182	0.0001896
2194	0.0001264
2206	0.0001264
2218	0.0001896
2230	0.0003792
2242	0.0005056
2254	0.0006952
2266	0.0008848
2278	0.0010744
2290	0.000948
2302	0.0007584
2314	0.0008216
2326	0.0010112
2338	0.0010112
2350	0.0012008
2362	0.0014536
2374	0.0013904
2386	0.0012008
2398	0.0010744
2410	0.0010112
2422	0.0010744
2434	0.0011376
2446	0.0013904
2458	0.00158
2470	0.0017064
2482	0.0017696
2494	0.0019592
2506	0.0020856
2518	0.0017696
2530	0.0014536
2542	0.0012008
2554	0.0010112
2566	0.0008216
2578	0.0007584
2590	0.0007584
2602	0.0006952
2614	0.000632
2626	0.000632
2638	0.0005688
2650	0.0005056
2662	0.0005688
2674	0.0006952
2686	0.000948
2698	0.0010112
2710	0.001264
2722	0.0017696
2734	0.0016432
2746	0.0017064
2758	0.0018328
2770	0.0020224
2782	0.002212
2794	0.0022752
2806	0.002528
2818	0.0032864
2830	0.0042344
2842	0.0056248
2854	0.0077736
2866	0.01264
2878	0.0207928
2890	0.0241424
2902	0.024016
2914	0.029388
2926	0.0412696
2938	0.0638952
2950	0.0424072
2962	0.0487904
2974	0.0691408
2986	0.054984
2998	0.028124
3010	0.017064
3022	0.007584
3034	0.0044872
3046	0.0030968
3058	0.0024648
3070	0.0022752
3082	0.002212
3094	0.0024648
3106	0.0027176
3118	0.002528
3130	0.002212
3142	0.0016432
3154	0.0013272
3166	0.000948
3178	0.0008848
3190	0.0008848
3202	0.0007584
3214	0.000632
3226	0.0005056
3238	0.0005056
3250	0.0004424
3262	0.0002528
3274	0.0001264
3286	6.32e-05
3298	0
3310	0
3322	6.32e-05
3334	0
3346	6.32e-05
3358	0.0001896
3370	0.0001896
3382	0.0003792
3394	0.0006952
3406	0.0015168
3418	0.0040448
3430	0.0108704
3442	0.0219304
3454	0.0261648
3466	0.0206664
3478	0.0073944
3490	0.002528
3502	0.0013904
3514	0.0008848
3526	0.0005688
3538	0.0004424
3550	0.0003792
3562	0.0001896
3574	0.0001896
3586	0.0001264
3598	0.0001264
3610	0.0001896
3622	0.0001264
3634	6.32e-05
3646	0.0001264
3658	6.32e-05
3670	6.32e-05
3682	0.0001264
3694	0.0001896
3706	6.32e-05
3718	0.0001896
3730	0.0001896
3742	0.0002528
3754	0.0001896
3766	0.0002528
3778	0.0001896
3790	0.0001896
3802	0.0001896
3814	0.0001896
3826	0.000316
3838	0.000316
