Infrared Spectrum: Salicylidene p-bromoaniline
Formula: C 13 H 10 Br N O
CAS: 886-34-0
State: gas
Origin: EPA-IR VAPOR PHASE LIBRARY
1/CM	ABSORBANCE
551.7	0.0048
563.274	0.00334
574.848	0.00228
586.421	0.00312
597.995	0.00333
609.569	0.00273
621.143	0.00311
632.717	0.00382
644.291	0.00427
655.864	0.0055
667.438	0.01194
679.012	0.03276
690.586	0.01047
702.16	0.01044
713.734	0.01295
725.307	0.0165
736.881	0.0288
748.455	0.05277
760.029	0.0381
771.603	0.01861
783.177	0.0108
794.75	0.00922
806.324	0.01437
817.898	0.02482
829.472	0.03392
841.046	0.02506
852.619	0.01616
864.193	0.00733
875.767	0.0043
887.341	0.00415
898.915	0.01043
910.489	0.03529
922.062	0.00626
933.636	0.00437
945.21	0.00386
956.784	0.00334
968.358	0.00466
979.932	0.00614
991.505	0.00488
1003.08	0.0246
1014.65	0.02568
1026.23	0.00818
1037.8	0.00693
1049.37	0.00626
1060.95	0.01122
1072.52	0.04666
1084.1	0.01205
1095.67	0.00961
1107.24	0.01094
1118.82	0.01571
1130.39	0.00926
1141.97	0.02313
1153.54	0.05222
1165.11	0.04335
1176.69	0.06226
1188.26	0.06358
1199.83	0.03184
1211.41	0.02241
1222.98	0.02181
1234.56	0.01536
1246.13	0.01021
1257.7	0.01427
1269.28	0.02992
1280.85	0.05024
1292.42	0.03563
1304	0.01691
1315.57	0.01049
1327.15	0.00718
1338.72	0.00671
1350.29	0.00928
1361.87	0.01535
1373.44	0.01657
1385.02	0.01598
1396.59	0.01455
1408.16	0.01325
1419.74	0.01261
1431.31	0.01413
1442.88	0.01948
1454.46	0.03086
1466.03	0.0457
1477.61	0.11203
1489.18	0.09881
1500.75	0.03699
1512.33	0.02099
1523.9	0.01757
1535.48	0.01444
1547.05	0.01603
1558.62	0.02749
1570.2	0.06902
1581.77	0.07189
1593.34	0.04391
1604.92	0.05874
1616.49	0.17548
1628.07	0.19136
1639.64	0.0486
1651.21	0.0199
1662.79	0.01253
1674.36	0.0108
1685.93	0.01003
1697.51	0.00582
1709.08	0.00504
1720.66	0.0039
1732.23	0.00384
1743.8	0.00414
1755.38	0.00451
1766.95	0.00331
1778.53	0.00352
1790.1	0.00357
1801.67	0.00222
1813.25	0.00236
1824.82	0.00291
1836.39	0.00204
1847.97	0.00191
1859.54	0.00282
1871.12	0.00347
1882.69	0.00372
1894.26	0.00382
1905.84	0.00353
1917.41	0.00227
1928.99	0.00296
1940.56	0.00504
1952.13	0.00261
1963.71	0.00174
1975.28	0.00164
1986.85	0.00145
1998.43	0.00128
2010	0.00131
2021.58	0.00137
2033.15	0.00139
2044.72	0.0015
2056.3	0.0018
2067.87	0.00183
2079.44	0.00175
2091.02	0.00154
2102.59	0.00131
2114.17	0.00117
2125.74	0.00111
2137.31	0.00119
2148.89	0.00117
2160.46	0.0013
2172.04	0.00146
2183.61	0.00145
2195.18	0.00142
2206.76	0.00148
2218.33	0.0017
2229.9	0.0017
2241.48	0.00163
2253.05	0.00174
2264.63	0.00214
2276.2	0.00209
2287.77	0.00187
2299.35	0.00205
2310.92	0.00208
2322.5	0.00229
2334.07	0.00265
2345.64	0.00274
2357.22	0.00258
2368.79	0.00259
2380.36	0.00279
2391.94	0.00312
2403.51	0.00309
2415.09	0.00282
2426.66	0.00291
2438.23	0.00304
2449.81	0.00316
2461.38	0.00332
2472.96	0.00332
2484.53	0.00355
2496.1	0.00381
2507.68	0.00409
2519.25	0.00441
2530.82	0.00445
2542.4	0.0047
2553.97	0.00497
2565.55	0.00529
2577.12	0.00555
2588.69	0.00597
2600.27	0.0063
2611.84	0.00652
2623.41	0.00701
2634.99	0.00729
2646.56	0.00716
2658.14	0.00718
2669.71	0.00694
2681.28	0.00692
2692.86	0.00731
2704.43	0.008
2716.01	0.00883
2727.58	0.00908
2739.15	0.00957
2750.73	0.01024
2762.3	0.01071
2773.87	0.01067
2785.45	0.01034
2797.02	0.01044
2808.6	0.01052
2820.17	0.01088
2831.74	0.01155
2843.32	0.01286
2854.89	0.01402
2866.47	0.01512
2878.04	0.01831
2889.61	0.02118
2901.19	0.01747
2912.76	0.01422
2924.33	0.01396
2935.91	0.0148
2947.48	0.01456
2959.06	0.01412
2970.63	0.0151
2982.2	0.01754
2993.78	0.01922
3005.35	0.01874
3016.92	0.01989
3028.5	0.02188
3040.07	0.02277
3051.65	0.02454
3063.22	0.02806
3074.79	0.03534
3086.37	0.02856
3097.94	0.02319
3109.52	0.01989
3121.09	0.0178
3132.66	0.01646
3144.24	0.0165
3155.81	0.01664
3167.38	0.01685
3178.96	0.01664
3190.53	0.01591
3202.11	0.01522
3213.68	0.0152
3225.25	0.0157
3236.83	0.01557
3248.4	0.01438
3259.98	0.01334
3271.55	0.01248
3283.12	0.0116
3294.7	0.01085
3306.27	0.01012
3317.84	0.00942
3329.42	0.00862
3340.99	0.0078
3352.57	0.00695
3364.14	0.00633
3375.71	0.00565
3387.29	0.00508
3398.86	0.00463
3410.43	0.004
3422.01	0.00361
3433.58	0.00326
3445.16	0.00288
3456.73	0.00251
3468.3	0.00229
3479.88	0.00201
3491.45	0.0017
3503.03	0.00149
3514.6	0.00126
3526.17	0.00118
3537.75	0.0009498
3549.32	0.00101
3560.89	0.0009125
3572.47	0.0007994
3584.04	0.0006346
3595.62	0.0006494
3607.19	0.0006251
3618.76	0.0006089
3630.34	0.0005615
3641.91	0.0006972
3653.49	0.000698
3665.06	0.0005699
3676.63	0.0004175
3688.21	0.0003606
3699.78	0.0005205
3711.35	0.0004147
3722.93	0.0004648
3734.5	0.0001693
3746.08	0.0002739
3757.65	0.0004279
3769.22	0.000429
3780.8	0.0002878
3792.37	0.0003176
3803.94	0.0002283
3815.52	0.0003317
3827.09	0.0003338
3838.67	0.0002736
3850.24	0.0002827
3861.81	0.0004248
3873.39	0.000398
3884.96	0.0003366
3896.54	0.0004223
3908.11	0.0004666
3919.68	0.0004944
3931.26	0.000513
3942.83	0.0005017
3954.4	0.0006428
3965.98	0.0006075
3977.55	0.0005464
3989.13	0.0004081
4000.7	0.0002454
