Infrared Spectrum: 2-(N-METHYLANILINO)-3-METHYL PYRAZINE
Formula: C12 H13 N3
CAS: 88613-84-7
State: LIQUID
Class: COBLENTZ
Instrument: Not specified, most likely a prism, grating, or hybrid spectrometer.
Sampling: TRANSMISSION
Path length: 0.0015 CM
Resolution: 4
Origin: WYANDOTTE CHEMICALS CORP., WYANDOTTE, MICHIGAN, USA
MICROMETERS	TRANSMITTANCE
2.033	0.951
2.07294	0.951
2.11289	0.942
2.15283	0.937
2.19278	0.93
2.23272	0.908
2.27267	0.92
2.31261	0.925
2.35256	0.927
2.3925	0.925
2.43244	0.908
2.47239	0.927
2.51233	0.933
2.55228	0.945
2.59222	0.951
2.63217	0.947
2.67211	0.951
2.71206	0.947
2.752	0.927
2.79194	0.918
2.83189	0.908
2.87183	0.887
2.91178	0.869
2.95172	0.852
2.99167	0.846
3.03161	0.849
3.07155	0.847
3.1115	0.857
3.15144	0.857
3.19139	0.852
3.23133	0.796
3.27128	0.619
3.31122	0.39
3.35117	0.543
3.39111	0.473
3.43105	0.49
3.471	0.49
3.51094	0.627
3.55089	0.695
3.59083	0.784
3.63078	0.842
3.67072	0.864
3.71067	0.877
3.75061	0.895
3.79055	0.899
3.8305	0.887
3.87044	0.892
3.91039	0.887
3.95033	0.899
3.99028	0.908
4.03022	0.905
4.07017	0.903
4.11011	0.9
4.15005	0.889
4.19	0.889
4.22994	0.89
4.26989	0.869
4.30983	0.865
4.34978	0.869
4.38972	0.877
4.42966	0.908
4.46961	0.912
4.50955	0.913
4.5495	0.91
4.58944	0.92
4.62939	0.922
4.66933	0.92
4.70928	0.907
4.74922	0.91
4.78916	0.917
4.82911	0.899
4.86905	0.897
4.909	0.903
4.94894	0.917
4.98889	0.91
5.02883	0.91
5.06878	0.899
5.10872	0.887
5.14866	0.872
5.18861	0.839
5.22855	0.837
5.2685	0.86
5.30844	0.849
5.34839	0.836
5.38833	0.847
5.42828	0.862
5.46822	0.87
5.50816	0.857
5.54811	0.844
5.58805	0.829
5.628	0.819
5.66794	0.824
5.70789	0.827
5.74783	0.812
5.78777	0.799
5.82772	0.789
5.86766	0.773
5.90761	0.741
5.94755	0.736
5.9875	0.726
6.02744	0.723
6.06739	0.723
6.10733	0.685
6.14727	0.582
6.18722	0.402
6.22716	0.099
6.26711	0.256
6.30705	0.278
6.347	0.346
6.38694	0.456
6.42689	0.501
6.46683	0.425
6.50677	0.057
6.54672	0.064
6.58666	0.18
6.62661	0.077
6.66655	0.026
6.7065	0.145
6.74644	0.145
6.78639	0.062
6.82633	0.074
6.86627	0.089
6.90622	0.066
6.94616	0.026
6.98611	0.024
7.02605	0.125
7.066	0.172
7.10594	0.034
7.14588	0.021
7.18583	0.024
7.22577	0.036
7.26572	0.099
7.30566	0.228
7.34561	0.312
7.38555	0.337
7.4255	0.326
7.46544	0.221
7.50538	0.17
7.54533	0.268
7.58527	0.36
7.62522	0.397
7.66516	0.425
7.70511	0.473
7.74505	0.466
7.785	0.468
7.82494	0.519
7.86488	0.498
7.90483	0.39
7.94477	0.165
7.98472	0.11
8.02466	0.263
8.06461	0.432
8.10455	0.581
8.1445	0.627
8.18444	0.629
8.22438	0.577
8.26433	0.493
8.30427	0.36
8.34422	0.208
8.38416	0.057
8.42411	0.049
8.46405	0.081
8.50399	0.13
8.54394	0.254
8.58388	0.372
8.62383	0.399
8.66377	0.354
8.70372	0.405
8.74366	0.266
8.78361	0.12
8.82355	0.046
8.86349	0.096
8.90344	0.172
8.94338	0.226
8.98333	0.374
9.02327	0.528
9.06322	0.609
9.10316	0.652
9.14311	0.658
9.18305	0.614
9.22299	0.521
9.26294	0.476
9.30288	0.556
9.34283	0.614
9.38277	0.63
9.42272	0.615
9.46266	0.513
9.50261	0.445
9.54255	0.582
9.58249	0.647
9.62244	0.604
9.66238	0.495
9.70233	0.35
9.74227	0.365
9.78222	0.551
9.82216	0.668
9.8621	0.711
9.90205	0.683
9.94199	0.566
9.98194	0.612
10.0219	0.587
10.0618	0.642
10.1018	0.617
10.1417	0.509
10.1817	0.364
10.2216	0.283
10.2615	0.365
10.3015	0.544
10.3414	0.632
10.3814	0.662
10.4213	0.685
10.4613	0.701
10.5012	0.706
10.5412	0.706
10.5811	0.711
10.621	0.73
10.661	0.763
10.7009	0.791
10.7409	0.799
10.7808	0.804
10.8208	0.801
10.8607	0.793
10.9007	0.781
10.9406	0.753
10.9805	0.7
11.0205	0.597
11.0604	0.486
11.1004	0.415
11.1403	0.435
11.1803	0.548
11.2202	0.647
11.2602	0.701
11.3001	0.733
11.34	0.75
11.38	0.759
11.4199	0.764
11.4599	0.768
11.4998	0.761
11.5398	0.753
11.5797	0.721
11.6197	0.695
11.6596	0.649
11.6995	0.596
11.7395	0.526
11.7794	0.47
11.8194	0.4
11.8593	0.347
11.8993	0.319
11.9392	0.321
11.9792	0.36
12.0191	0.458
12.059	0.533
12.099	0.569
12.1389	0.604
12.1789	0.647
12.2188	0.69
12.2588	0.72
12.2987	0.736
12.3387	0.731
12.3786	0.748
12.4185	0.771
12.4585	0.766
12.4984	0.735
12.5384	0.653
12.5783	0.557
12.6183	0.506
12.6582	0.571
12.6982	0.668
12.7381	0.683
12.778	0.624
12.818	0.529
12.8579	0.478
12.8979	0.44
12.9378	0.463
12.9778	0.445
13.0177	0.327
13.0577	0.205
13.0976	0.135
13.1375	0.125
13.1775	0.145
13.2174	0.18
13.2574	0.213
13.2973	0.259
13.3373	0.321
13.3772	0.41
13.4172	0.523
13.4571	0.609
13.497	0.668
13.537	0.708
13.5769	0.741
13.6169	0.769
13.6568	0.786
13.6968	0.789
13.7367	0.799
13.7767	0.802
13.8166	0.806
13.8565	0.799
13.8965	0.789
13.9364	0.781
13.9764	0.771
14.0163	0.745
14.0563	0.703
14.0962	0.624
14.1362	0.509
14.1761	0.354
14.216	0.211
14.256	0.117
14.2959	0.092
14.3359	0.094
14.3758	0.122
14.4158	0.15
14.4557	0.178
14.4957	0.185
14.5356	0.223
14.5755	0.316
14.6155	0.458
14.6554	0.609
14.6954	0.688
14.7353	0.736
14.7753	0.768
14.8152	0.781
14.8552	0.794
14.8951	0.802
14.935	0.806
14.975	0.807
15.0149	0.799
15.0549	0.784
15.0948	0.791
15.1348	0.809
15.1747	0.822
15.2147	0.829
15.2546	0.832
15.2945	0.826
15.3345	0.831
15.3744	0.832
15.4144	0.827
15.4543	0.827
15.4943	0.819
15.5342	0.809
15.5742	0.811
15.6141	0.814
15.654	0.809
15.694	0.804
15.7339	0.801
15.7739	0.798
15.8138	0.796
15.8538	0.788
15.8937	0.783
15.9337	0.779
15.9736	0.769
