Infrared Spectrum: 2-(p-METHOXYANILINO)-3-METHYL PYRAZINE
Formula: C12 H13 N3 O
CAS: 88613-98-3
State: SOLID (MINERAL OIL MULL)
Melting point: 106-107 C
Class: COBLENTZ
Instrument: Not specified, most likely a prism, grating, or hybrid spectrometer.
Sampling: TRANSMISSION
Resolution: 4
Origin: WYANDOTTE CHEMICALS CORP., WYANDOTTE, MICHIGAN, USA
MICROMETERS	TRANSMITTANCE
2.021	0.633
2.06201	0.645
2.10303	0.65
2.14404	0.658
2.18506	0.658
2.22607	0.662
2.26709	0.667
2.3081	0.679
2.34912	0.687
2.39013	0.694
2.43115	0.708
2.47216	0.711
2.51318	0.718
2.55419	0.728
2.59521	0.732
2.63622	0.749
2.67723	0.75
2.71825	0.755
2.75926	0.766
2.80028	0.761
2.84129	0.769
2.88231	0.773
2.92332	0.767
2.96434	0.733
3.00535	0.631
3.04637	0.409
3.08738	0.491
3.1284	0.624
3.16941	0.663
3.21043	0.665
3.25144	0.627
3.29245	0.587
3.33347	0.494
3.37448	0.126
3.4155	0.114
3.45651	0.25
3.49753	0.249
3.53854	0.61
3.57956	0.788
3.62057	0.819
3.66159	0.82
3.7026	0.827
3.74362	0.837
3.78463	0.846
3.82565	0.851
3.86666	0.86
3.90767	0.866
3.94869	0.877
3.9897	0.87
4.03072	0.883
4.07173	0.877
4.11275	0.87
4.15376	0.887
4.19478	0.892
4.23579	0.866
4.27681	0.87
4.31782	0.88
4.35884	0.894
4.39985	0.924
4.44087	0.916
4.48188	0.916
4.52289	0.928
4.56391	0.931
4.60492	0.941
4.64594	0.94
4.68695	0.936
4.72797	0.941
4.76898	0.95
4.81	0.96
4.85101	0.959
4.89203	0.948
4.93304	0.936
4.97406	0.948
5.01507	0.957
5.05609	0.959
5.0971	0.959
5.13811	0.972
5.17913	0.977
5.22014	0.972
5.26116	0.962
5.30217	0.96
5.34319	0.972
5.3842	0.977
5.42522	0.979
5.46623	0.97
5.50725	0.988
5.54826	1
5.58928	0.991
5.63029	0.974
5.6713	0.967
5.71232	0.989
5.75333	0.998
5.79435	0.994
5.83536	0.998
5.87638	1.001
5.91739	0.986
5.95841	0.977
5.99942	0.964
6.04044	0.94
6.08145	0.938
6.12247	0.909
6.16348	0.769
6.2045	0.581
6.24551	0.329
6.28652	0.518
6.32754	0.732
6.36855	0.807
6.40957	0.656
6.45058	0.636
6.4916	0.561
6.53261	0.313
6.57363	0.056
6.61464	0.068
6.65566	0.114
6.69667	0.271
6.73769	0.372
6.7787	0.401
6.81972	0.17
6.86073	0.257
6.90174	0.382
6.94276	0.428
6.98377	0.3
7.02479	0.382
7.0658	0.447
7.10682	0.629
7.14783	0.651
7.18885	0.452
7.22986	0.322
7.27088	0.257
7.31189	0.472
7.35291	0.651
7.39392	0.718
7.43494	0.74
7.47595	0.75
7.51696	0.752
7.55798	0.715
7.59899	0.778
7.64001	0.779
7.68102	0.656
7.72204	0.296
7.76305	0.315
7.80407	0.547
7.84508	0.67
7.8861	0.651
7.92711	0.438
7.96813	0.544
8.00914	0.505
8.05016	0.312
8.09117	0.175
8.13218	0.192
8.1732	0.296
8.21421	0.547
8.25523	0.663
8.29624	0.67
8.33726	0.269
8.37827	0.482
8.41929	0.709
8.4603	0.732
8.50132	0.445
8.54233	0.578
8.58335	0.726
8.62436	0.779
8.66538	0.781
8.70639	0.745
8.7474	0.53
8.78842	0.551
8.82943	0.709
8.87045	0.759
8.91146	0.783
8.95248	0.784
8.99349	0.699
9.03451	0.726
9.07552	0.813
9.11654	0.829
9.15755	0.834
9.19857	0.791
9.23958	0.781
9.2806	0.808
9.32161	0.81
9.36262	0.813
9.40364	0.819
9.44465	0.819
9.48567	0.815
9.52668	0.798
9.5677	0.721
9.60871	0.537
9.64973	0.319
9.69074	0.317
9.73176	0.482
9.77277	0.58
9.81379	0.696
9.8548	0.755
9.89582	0.779
9.93683	0.812
9.97784	0.827
10.0189	0.837
10.0599	0.832
10.1009	0.824
10.1419	0.771
10.1829	0.653
10.2239	0.598
10.2649	0.699
10.306	0.781
10.347	0.817
10.388	0.808
10.429	0.788
10.47	0.819
10.511	0.848
10.552	0.863
10.5931	0.868
10.6341	0.877
10.6751	0.885
10.7161	0.89
10.7571	0.89
10.7981	0.889
10.8392	0.849
10.8802	0.863
10.9212	0.883
10.9622	0.889
11.0032	0.895
11.0442	0.901
11.0852	0.911
11.1263	0.916
11.1673	0.918
11.2083	0.923
11.2493	0.921
11.2903	0.918
11.3313	0.924
11.3723	0.93
11.4134	0.928
11.4544	0.93
11.4954	0.918
11.5364	0.909
11.5774	0.899
11.6184	0.861
11.6594	0.81
11.7005	0.776
11.7415	0.771
11.7825	0.726
11.8235	0.679
11.8645	0.663
11.9055	0.656
11.9465	0.592
11.9876	0.539
12.0286	0.573
12.0696	0.571
12.1106	0.559
12.1516	0.72
12.1926	0.819
12.2337	0.865
12.2747	0.89
12.3157	0.897
12.3567	0.901
12.3977	0.894
12.4387	0.885
12.4797	0.883
12.5208	0.863
12.5618	0.791
12.6028	0.631
12.6438	0.457
12.6848	0.382
12.7258	0.645
12.7668	0.805
12.8079	0.866
12.8489	0.899
12.8899	0.907
12.9309	0.914
12.9719	0.899
13.0129	0.815
13.0539	0.766
13.095	0.744
13.136	0.641
13.177	0.699
13.218	0.825
13.259	0.87
13.3	0.894
13.341	0.902
13.3821	0.912
13.4231	0.918
13.4641	0.923
13.5051	0.921
13.5461	0.919
13.5871	0.923
13.6281	0.928
13.6692	0.928
13.7102	0.924
13.7512	0.924
13.7922	0.928
13.8332	0.926
13.8742	0.924
13.9153	0.921
13.9563	0.928
13.9973	0.935
14.0383	0.941
14.0793	0.948
14.1203	0.941
14.1613	0.919
14.2024	0.907
14.2434	0.919
14.2844	0.941
14.3254	0.948
14.3664	0.948
14.4074	0.941
14.4484	0.948
14.4895	0.941
14.5305	0.948
14.5715	0.948
14.6125	0.943
14.6535	0.948
14.6945	0.945
14.7355	0.941
14.7766	0.94
14.8176	0.935
14.8586	0.93
14.8996	0.926
14.9406	0.93
14.9816	0.926
15.0226	0.909
15.0637	0.875
15.1047	0.87
15.1457	0.892
15.1867	0.906
15.2277	0.901
15.2687	0.894
15.3098	0.885
15.3508	0.878
15.3918	0.877
15.4328	0.863
15.4738	0.851
15.5148	0.837
15.5558	0.827
15.5969	0.815
15.6379	0.796
15.6789	0.788
15.7199	0.79
15.7609	0.796
15.8019	0.79
15.8429	0.783
15.884	0.779
15.925	0.767
15.966	0.75
16.007	0.749
