Infrared Spectrum: 2-(o-METHOXYANILINO)-3-METHYL PYRAZINE
Formula: C12 H13 N3 O
CAS: 88613-97-2
State: SOLID (MINERAL OIL MULL)
Melting point: 80-81 C
Class: COBLENTZ
Instrument: Not specified, most likely a prism, grating, or hybrid spectrometer.
Sampling: TRANSMISSION
Resolution: 4
Origin: WYANDOTTE CHEMICALS CORP., WYANDOTTE, MICHIGAN, USA
MICROMETERS	TRANSMITTANCE
2.027	0.257
2.06792	0.257
2.10884	0.262
2.14975	0.269
2.19067	0.258
2.23159	0.27
2.27251	0.281
2.31342	0.291
2.35434	0.301
2.39526	0.303
2.43618	0.308
2.47709	0.318
2.51801	0.321
2.55893	0.335
2.59985	0.349
2.64076	0.342
2.68168	0.342
2.7226	0.345
2.76352	0.345
2.80443	0.359
2.84535	0.356
2.88627	0.252
2.92719	0.296
2.9681	0.332
3.00902	0.356
3.04994	0.364
3.09086	0.369
3.13178	0.378
3.17269	0.366
3.21361	0.373
3.25453	0.291
3.29545	0.168
3.33636	0.03
3.37728	0.03
3.4182	0.052
3.45912	0.052
3.50003	0.245
3.54095	0.497
3.58187	0.528
3.62279	0.54
3.6637	0.533
3.70462	0.553
3.74554	0.551
3.78646	0.562
3.82737	0.574
3.86829	0.574
3.90921	0.589
3.95013	0.599
3.99104	0.603
4.03196	0.618
4.07288	0.621
4.1138	0.613
4.15471	0.633
4.19563	0.637
4.23655	0.618
4.27747	0.618
4.31839	0.63
4.3593	0.669
4.40022	0.683
4.44114	0.683
4.48206	0.696
4.52297	0.695
4.56389	0.701
4.60481	0.708
4.64573	0.722
4.68664	0.732
4.72756	0.746
4.76848	0.752
4.8094	0.768
4.85031	0.768
4.89123	0.77
4.93215	0.776
4.97307	0.783
5.01398	0.781
5.0549	0.798
5.09582	0.812
5.13674	0.819
5.17765	0.824
5.21857	0.797
5.25949	0.838
5.30041	0.817
5.34133	0.802
5.38224	0.851
5.42316	0.867
5.46408	0.865
5.505	0.868
5.54591	0.887
5.58683	0.89
5.62775	0.867
5.66867	0.889
5.70958	0.889
5.7505	0.923
5.79142	0.923
5.83234	0.931
5.87325	0.938
5.91417	0.918
5.95509	0.889
5.99601	0.889
6.03692	0.856
6.07784	0.764
6.11876	0.35
6.15968	0.132
6.20059	0.385
6.24151	0.391
6.28243	0.315
6.32335	0.494
6.36427	0.405
6.40518	0.144
6.4461	0.044
6.48702	0.037
6.52794	0.115
6.56885	0.218
6.60977	0.306
6.65069	0.27
6.69161	0.166
6.73252	0.252
6.77344	0.039
6.81436	0.04
6.85528	0.127
6.89619	0.16
6.93711	0.204
6.97803	0.448
7.01895	0.477
7.05986	0.459
7.10078	0.202
7.1417	0.202
7.18262	0.257
7.22353	0.253
7.26445	0.221
7.30537	0.304
7.34629	0.54
7.3872	0.592
7.42812	0.603
7.46904	0.502
7.50996	0.487
7.55088	0.531
7.59179	0.626
7.63271	0.7
7.67363	0.618
7.71455	0.461
7.75546	0.626
7.79638	0.712
7.8373	0.734
7.87822	0.71
7.91913	0.538
7.96005	0.379
8.00097	0.163
8.04189	0.127
8.0828	0.257
8.12372	0.477
8.16464	0.514
8.20556	0.245
8.24647	0.47
8.28739	0.606
8.32831	0.54
8.36923	0.313
8.41014	0.597
8.45106	0.531
8.49198	0.391
8.5329	0.54
8.57382	0.511
8.61473	0.666
8.65565	0.718
8.69657	0.729
8.73749	0.567
8.7784	0.402
8.81932	0.597
8.86024	0.666
8.90116	0.405
8.94207	0.241
8.98299	0.492
9.02391	0.638
9.06483	0.698
9.10574	0.718
9.14666	0.739
9.18758	0.761
9.2285	0.751
9.26941	0.77
9.31033	0.8
9.35125	0.809
9.39217	0.816
9.43308	0.807
9.474	0.676
9.51492	0.293
9.55584	0.277
9.59676	0.475
9.63767	0.396
9.67859	0.206
9.71951	0.201
9.76043	0.396
9.80134	0.516
9.84226	0.604
9.88318	0.659
9.9241	0.706
9.96501	0.734
10.0059	0.751
10.0468	0.761
10.0878	0.77
10.1287	0.758
10.1696	0.705
10.2105	0.616
10.2514	0.511
10.2924	0.55
10.3333	0.64
10.3742	0.703
10.4151	0.73
10.456	0.754
10.4969	0.771
10.5379	0.775
10.5788	0.771
10.6197	0.78
10.6606	0.8
10.7015	0.804
10.7424	0.807
10.7834	0.81
10.8243	0.812
10.8652	0.804
10.9061	0.737
10.947	0.635
10.988	0.737
11.0289	0.821
11.0698	0.839
11.1107	0.851
11.1516	0.851
11.1925	0.853
11.2335	0.856
11.2744	0.86
11.3153	0.868
11.3562	0.873
11.3971	0.872
11.438	0.873
11.479	0.882
11.5199	0.882
11.5608	0.875
11.6017	0.873
11.6426	0.873
11.6836	0.87
11.7245	0.863
11.7654	0.826
11.8063	0.73
11.8472	0.708
11.8881	0.562
11.9291	0.417
11.97	0.308
12.0109	0.419
12.0518	0.645
12.0927	0.8
12.1336	0.85
12.1746	0.867
12.2155	0.875
12.2564	0.882
12.2973	0.884
12.3382	0.89
12.3792	0.885
12.4201	0.868
12.461	0.862
12.5019	0.873
12.5428	0.885
12.5837	0.887
12.6247	0.887
12.6656	0.882
12.7065	0.875
12.7474	0.863
12.7883	0.851
12.8292	0.816
12.8702	0.642
12.9111	0.437
12.952	0.511
12.9929	0.545
13.0338	0.415
13.0748	0.396
13.1157	0.487
13.1566	0.461
13.1975	0.293
13.2384	0.083
13.2793	0.049
13.3203	0.151
13.3612	0.296
13.4021	0.519
13.443	0.599
13.4839	0.657
13.5248	0.706
13.5658	0.756
13.6067	0.788
13.6476	0.807
13.6885	0.807
13.7294	0.764
13.7703	0.667
13.8113	0.674
13.8522	0.739
13.8931	0.781
13.934	0.821
13.9749	0.843
14.0159	0.865
14.0568	0.88
14.0977	0.889
14.1386	0.902
14.1795	0.909
14.2204	0.913
14.2614	0.913
14.3023	0.914
14.3432	0.911
14.3841	0.916
14.425	0.913
14.4659	0.913
14.5069	0.909
14.5478	0.906
14.5887	0.901
14.6296	0.899
14.6705	0.899
14.7115	0.89
14.7524	0.88
14.7933	0.875
14.8342	0.865
14.8751	0.865
14.916	0.863
14.957	0.858
14.9979	0.829
15.0388	0.781
15.0797	0.759
15.1206	0.798
15.1615	0.824
15.2025	0.819
15.2434	0.798
15.2843	0.79
15.3252	0.775
15.3661	0.763
15.4071	0.746
15.448	0.722
15.4889	0.696
15.5298	0.662
15.5707	0.62
15.6116	0.594
15.6526	0.584
15.6935	0.594
15.7344	0.609
15.7753	0.62
15.8162	0.625
15.8571	0.625
15.8981	0.608
15.939	0.597
15.9799	0.589
