Infrared Spectrum: 2-Acetyl-5-cyanothiophene
Formula: C 7 H 5 N O S
CAS: 88653-55-8
State: gas
Origin: EPA-IR VAPOR PHASE LIBRARY
1/CM	ABSORBANCE
549.8	0.002678
559.445	0.002878
569.09	0.002408
578.734	0.002718
588.379	0.002908
598.024	0.003328
607.669	0.003088
617.313	0.003708
626.958	0.004418
636.603	0.003338
646.248	0.002488
655.893	0.002638
665.537	0.002148
675.182	0.002238
684.827	0.002188
694.472	0.002078
704.116	0.002298
713.761	0.0015327
723.406	0.0011491
733.051	0.000922025
742.695	0.002248
752.34	0.0012156
761.985	0.0017036
771.63	0.002068
781.275	0.002368
790.919	0.002608
800.564	0.005268
810.209	0.006368
819.854	0.007128
829.498	0.004508
839.143	0.003108
848.788	0.0016331
858.433	0.002238
868.078	0.0016059
877.722	0.002418
887.367	0.002048
897.012	0.00123
906.657	0.0017271
916.301	0.003028
925.946	0.003648
935.591	0.003208
945.236	0.002438
954.88	0.003308
964.525	0.003298
974.17	0.002798
983.815	0.002368
993.46	0.002668
1003.1	0.002408
1012.75	0.002558
1022.39	0.002288
1032.04	0.004088
1041.68	0.002328
1051.33	0.0012906
1060.97	0.0010384
1070.62	0.002488
1080.26	0.00101395
1089.91	0.002418
1099.55	0.0011347
1109.2	0.004648
1118.84	0.002998
1128.49	0.001978
1138.13	0.001102
1147.78	0.002208
1157.42	0.003478
1167.07	0.002488
1176.71	0.002038
1186.36	0.004788
1196	0.005878
1205.64	0.007028
1215.29	0.007558
1224.93	0.015898
1234.58	0.021468
1244.22	0.019058
1253.87	0.024718
1263.51	0.020948
1273.16	0.006748
1282.8	0.003068
1292.45	0.003188
1302.09	0.002548
1311.74	0.003268
1321.38	0.004958
1331.03	0.005058
1340.67	0.004188
1350.32	0.004418
1359.96	0.007798
1369.61	0.008258
1379.25	0.004848
1388.9	0.003288
1398.54	0.002738
1408.18	0.002808
1417.83	0.004078
1427.47	0.006188
1437.12	0.008598
1446.76	0.006768
1456.41	0.003388
1466.05	0.002148
1475.7	0.001928
1485.34	0.0018018
1494.99	0.002288
1504.63	0.003418
1514.28	0.004678
1523.92	0.004448
1533.57	0.002628
1543.21	0.001958
1552.86	0.002558
1562.5	0.002088
1572.15	0.0014707
1581.79	0.002348
1591.44	0.002058
1601.08	0.0017557
1610.73	0.0016729
1620.37	0.0018076
1630.01	0.002348
1639.66	0.002848
1649.3	0.003028
1658.95	0.003128
1668.59	0.004028
1678.24	0.006668
1687.88	0.014598
1697.53	0.024538
1707.17	0.023138
1716.82	0.010608
1726.46	0.004318
1736.11	0.003278
1745.75	0.002338
1755.4	0.002558
1765.04	0.002418
1774.69	0.002278
1784.33	0.002218
1793.98	0.002078
1803.62	0.0018303
1813.27	0.0018656
1822.91	0.0018256
1832.55	0.0014862
1842.2	0.0018339
1851.84	0.0017834
1861.49	0.0015348
1871.13	0.001811
1880.78	0.0017959
1890.42	0.0017263
1900.07	0.001259
1909.71	0.0017009
1919.36	0.0014587
1929	0.0012241
1938.65	0.0011769
1948.29	0.0014508
1957.94	0.001325
1967.58	0.0013396
1977.23	0.0015558
1986.87	0.0013486
1996.52	0.0015273
2006.16	0.0013417
2015.81	0.0013118
2025.45	0.0014491
2035.1	0.0014216
2044.74	0.0013594
2054.38	0.0013744
2064.03	0.0014669
2073.67	0.0014786
2083.32	0.0012674
2092.96	0.0015675
2102.61	0.0013803
2112.25	0.0012838
2121.9	0.001256
2131.54	0.0014879
2141.19	0.0014831
2150.83	0.0014415
2160.48	0.0012922
2170.12	0.0010616
2179.77	0.00100364
2189.41	0.0011707
2199.06	0.0012525
2208.7	0.0016456
2218.35	0.003078
2227.99	0.003678
2237.64	0.002928
2247.28	0.0014403
2256.92	0.0012135
2266.57	0.001364
2276.21	0.0013799
2285.86	0.0018503
2295.5	0.0013074
2305.15	0.0014658
2314.79	0.0016251
2324.44	0.0013995
2334.08	0.0012861
2343.73	0.0014727
2353.37	0.001441
2363.02	0.0013502
2372.66	0.0017518
2382.31	0.0011771
2391.95	0.0011378
2401.6	0.0011165
2411.24	0.0012872
2420.89	0.0013136
2430.53	0.0017556
2440.18	0.00101179
2449.82	0.0013541
2459.47	0.001708
2469.11	0.0015455
2478.75	0.0011714
2488.4	0.0014476
2498.04	0.0015537
2507.69	0.0014897
2517.33	0.0010644
2526.98	0.0014722
2536.62	0.0017729
2546.27	0.0015308
2555.91	0.0011832
2565.56	0.0015433
2575.2	0.0014651
2584.85	0.0010225
2594.49	0.0013178
2604.14	0.0013473
2613.78	0.0015676
2623.43	0.0013597
2633.07	0.0015266
2642.72	0.0014291
2652.36	0.0011276
2662.01	0.001048
2671.65	0.0014085
2681.29	0.0011881
2690.94	0.0012269
2700.58	0.0013188
2710.23	0.0013259
2719.87	0.00095566
2729.52	0.001275
2739.16	0.0010274
2748.81	0.0011942
2758.45	0.000925613
2768.1	0.0013082
2777.74	0.0012028
2787.39	0.00099106
2797.03	0.0012844
2806.68	0.0014544
2816.32	0.0015608
2825.97	0.0008702
2835.61	0.0011625
2845.26	0.00098236
2854.9	0.0013263
2864.55	0.0017199
2874.19	0.0010314
2883.84	0.0011655
2893.48	0.0012569
2903.12	0.00098909
2912.77	0.0014851
2922.41	0.0018333
2932.06	0.0009997
2941.7	0.0008482
2951.35	0.0012326
2960.99	0.0014367
2970.64	0.0017948
2980.28	0.002188
2989.93	0.0017691
2999.57	0.0014217
3009.22	0.002088
3018.86	0.0015361
3028.51	0.0015407
3038.15	0.0011993
3047.8	0.0013647
3057.44	0.0013066
3067.09	0.0015183
3076.73	0.0015463
3086.38	0.0017249
3096.02	0.0018603
3105.67	0.0018385
3115.31	0.0011896
3124.95	0.000739
3134.6	0.0014054
3144.24	0.00097564
3153.89	0.0017866
3163.53	0.000782
3173.18	0.0010485
3182.82	0.000785
3192.47	0.0013451
3202.11	0.001367
3211.76	0.001798
3221.4	0.000702
3231.05	0.0011855
3240.69	0.0018998
3250.34	0.002188
3259.98	0.001264
3269.63	0.0014993
3279.27	0.0010898
3288.92	0.000773
3298.56	0.0017845
3308.21	0.0010454
3317.85	0.0018509
3327.49	0.0014607
3337.14	0.000668
3346.78	0.0008812
3356.43	0.0013442
3366.07	0.0015119
3375.72	0.0016612
3385.36	0.002438
3395.01	0.0010858
3404.65	0.00101263
3414.3	0.000311
3423.94	0.0012578
3433.59	0.0015204
3443.23	0.0008
3452.88	0.000408
3462.52	0.0008608
3472.17	0
3481.81	0.000534
3491.46	0.0010616
3501.1	0.001988
3510.75	0.0014459
3520.39	0.002128
3530.04	0.0013814
3539.68	0.0017259
3549.32	0.0012443
3558.97	0.000701
3568.61	0.0009056
3578.26	0.0009038
3587.9	0.0018338
3597.55	0.0012061
3607.19	0.000738
3616.84	0.0012166
3626.48	0.0015383
3636.13	0.000622
3645.77	0.000733
3655.42	0.0015524
3665.06	0.0010413
3674.71	0.0015287
3684.35	0.0011127
3694	0.000307
3703.64	0.0014715
3713.29	0.000737
3722.93	0.0012404
3732.58	0.0015301
3742.22	0.00101185
3751.86	0.0016535
3761.51	0.00093403
3771.15	0.002048
3780.8	0.000895
3790.44	0.0015081
3800.09	0.0012136
3809.73	0.0012193
3819.38	0.0016222
3829.02	0.0011188
3838.67	0.0008639
3848.31	0.0013298
3857.96	0.002048
3867.6	0.0015663
3877.25	0.0012794
3886.89	0.0016811
3896.54	0.0011374
3906.18	0.0014609
3915.83	0.0014046
3925.47	0.0011119
3935.12	0.0014496
3944.76	4.6e-05
3954.41	0.0011072
3964.05	0.0008603
3973.69	0.0010394
3983.34	0.002128
3992.98	0.0013833
