Infrared Spectrum: 3H-v-TRIAZOLO[4,5-d]PYRIMIDINE, 5-AMINO-7-CHLORO-
Formula: C4 H3 Cl N6
CAS: 88780-84-1
State: SOLID (0.9 mg / 650 mg KBr DISC)
Class: COBLENTZ III
Instrument: PERKIN-ELMER 21 (GRATING)
Instrument parameters: FILTER CHANGE ABOUT 1020 CM^-^1
Sampling: TRANSMISSION
Resolution: 4
Origin: SOUTHERN RESEARCH INSTITUTE
1/CM	TRANSMITTANCE
601.27	0.696
610.038	0.696
618.807	0.6944
627.575	0.6923
636.343	0.689
645.111	0.688
653.88	0.689
662.648	0.6986
671.416	0.7092
680.184	0.713
688.953	0.71
697.721	0.7031
706.489	0.6944
715.257	0.6863
724.026	0.6774
732.794	0.672
741.562	0.6641
750.331	0.657
759.099	0.651
767.867	0.6379
776.635	0.6046
785.404	0.5789
794.172	0.6652
802.94	0.6515
811.708	0.6292
820.477	0.5755
829.245	0.6182
838.013	0.6484
846.782	0.6672
855.55	0.6625
864.318	0.6289
873.086	0.692
881.855	0.684
890.623	0.684
899.391	0.6634
908.159	0.6313
916.928	0.5822
925.696	0.5667
934.464	0.6494
943.232	0.677
952.001	0.6566
960.769	0.6201
969.537	0.5721
978.306	0.5492
987.074	0.557
995.842	0.5686
1004.61	0.5705
1013.38	0.5536
1022.15	0.5398
1030.92	0.5529
1039.68	0.5808
1048.45	0.621
1057.22	0.653
1065.99	0.6464
1074.76	0.6256
1083.52	0.6266
1092.29	0.6265
1101.06	0.6088
1109.83	0.5804
1118.6	0.6007
1127.37	0.6471
1136.13	0.648
1144.9	0.645
1153.67	0.6302
1162.44	0.6096
1171.21	0.5984
1179.98	0.5945
1188.74	0.5892
1197.51	0.5691
1206.28	0.4812
1215.05	0.3892
1223.82	0.4001
1232.59	0.5189
1241.35	0.6023
1250.12	0.592
1258.89	0.5796
1267.66	0.5705
1276.43	0.5871
1285.19	0.6203
1293.96	0.6252
1302.73	0.624
1311.5	0.621
1320.27	0.614
1329.04	0.6043
1337.8	0.5895
1346.57	0.5408
1355.34	0.4246
1364.11	0.3785
1372.88	0.4986
1381.65	0.565
1390.41	0.562
1399.18	0.564
1407.95	0.563
1416.72	0.5617
1425.49	0.5555
1434.26	0.549
1443.02	0.5408
1451.79	0.5285
1460.56	0.5172
1469.33	0.498
1478.1	0.4799
1486.87	0.4391
1495.63	0.3341
1504.4	0.2773
1513.17	0.3081
1521.94	0.3872
1530.71	0.4034
1539.47	0.3865
1548.24	0.3584
1557.01	0.2296
1565.78	0.2246
1574.55	0.3036
1583.32	0.399
1592.08	0.3581
1600.85	0.2573
1609.62	0.1703
1618.39	0.102
1627.16	0.111
1635.93	0.169
1644.69	0.1959
1653.46	0.2444
1662.23	0.2632
1671	0.3343
1679.77	0.4092
1688.54	0.518
1697.3	0.5722
1706.07	0.6075
1714.84	0.6567
1723.61	0.7069
1732.38	0.737
1741.14	0.7607
1749.91	0.7764
1758.68	0.7911
1767.45	0.8019
1776.22	0.8108
1784.99	0.8265
1793.75	0.8336
1802.52	0.832
1811.29	0.834
1820.06	0.836
1828.83	0.8367
1837.6	0.837
1846.36	0.8361
1855.13	0.836
1863.9	0.836
1872.67	0.833
1881.44	0.8333
1890.21	0.833
1898.97	0.8325
1907.74	0.83
1916.51	0.83
1925.28	0.828
1934.05	0.8269
1942.82	0.826
1951.58	0.8251
1960.35	0.823
1969.12	0.823
1977.89	0.8224
1986.66	0.822
1995.42	0.821
2004.19	0.816
2012.96	0.813
2021.73	0.812
2030.5	0.81
2039.27	0.808
2048.03	0.8043
2056.8	0.802
2065.57	0.802
2074.34	0.801
2083.11	0.801
2091.88	0.8007
2100.64	0.8
2109.41	0.799
2118.18	0.799
2126.95	0.796
2135.72	0.794
2144.49	0.7907
2153.25	0.786
2162.02	0.784
2170.79	0.782
2179.56	0.782
2188.33	0.782
2197.09	0.782
2205.86	0.781
2214.63	0.779
2223.4	0.775
2232.17	0.7717
2240.94	0.7707
2249.7	0.769
2258.47	0.765
2267.24	0.761
2276.01	0.761
2284.78	0.758
2293.55	0.749
2302.31	0.746
2311.08	0.745
2319.85	0.744
2328.62	0.741
2337.39	0.7313
2346.16	0.732
2354.92	0.732
2363.69	0.729
2372.46	0.7247
2381.23	0.7163
2390	0.7087
2398.77	0.7037
2407.53	0.6987
2416.3	0.694
2425.07	0.6903
2433.84	0.6867
2442.61	0.6827
2451.37	0.679
2460.14	0.674
2468.91	0.671
2477.68	0.668
2486.45	0.6643
2495.22	0.661
2503.98	0.657
2512.75	0.6557
2521.52	0.653
2530.29	0.6507
2539.06	0.643
2547.83	0.635
2556.59	0.629
2565.36	0.622
2574.13	0.615
2582.9	0.6063
2591.67	0.5987
2600.44	0.5923
2609.2	0.5847
2617.97	0.581
2626.74	0.579
2635.51	0.576
2644.28	0.575
2653.04	0.57
2661.81	0.566
2670.58	0.5627
2679.35	0.558
2688.12	0.554
2696.89	0.55
2705.65	0.5477
2714.42	0.542
2723.19	0.5347
2731.96	0.529
2740.73	0.522
2749.5	0.513
2758.26	0.508
2767.03	0.504
2775.8	0.506
2784.57	0.506
2793.34	0.504
2802.11	0.501
2810.87	0.498
2819.64	0.497
2828.41	0.496
2837.18	0.495
2845.95	0.495
2854.72	0.4943
2863.48	0.4877
2872.25	0.4817
2881.02	0.476
2889.79	0.4717
2898.56	0.466
2907.32	0.461
2916.09	0.46
2924.86	0.457
2933.63	0.455
2942.4	0.4547
2951.17	0.452
2959.93	0.451
2968.7	0.45
2977.47	0.45
2986.24	0.449
2995.01	0.447
3003.78	0.4447
3012.54	0.442
3021.31	0.4407
3030.08	0.4357
3038.85	0.4293
3047.62	0.412
3056.39	0.3916
3065.15	0.381
3073.92	0.371
3082.69	0.3587
3091.46	0.3503
3100.23	0.3427
3108.99	0.3367
3117.76	0.3317
3126.53	0.328
3135.3	0.323
3144.07	0.3207
3152.84	0.318
3161.6	0.3137
3170.37	0.3077
3179.14	0.303
3187.91	0.3
3196.68	0.3023
3205.45	0.31
3214.21	0.3153
3222.98	0.326
3231.75	0.3373
3240.52	0.3533
3249.29	0.361
3258.06	0.363
3266.82	0.361
3275.59	0.3523
3284.36	0.3427
3293.13	0.3317
3301.9	0.322
3310.67	0.311
3319.43	0.3043
3328.2	0.3
3336.97	0.3053
3345.74	0.315
3354.51	0.3244
3363.27	0.332
3372.04	0.337
3380.81	0.351
3389.58	0.3633
3398.35	0.373
3407.12	0.3874
3415.88	0.4104
3424.65	0.4243
3433.42	0.4317
3442.19	0.4453
3450.96	0.471
3459.73	0.4907
3468.49	0.507
3477.26	0.5213
3486.03	0.5354
3494.8	0.5567
3503.57	0.5847
3512.34	0.62
3521.1	0.6457
3529.87	0.662
3538.64	0.6713
3547.41	0.6784
3556.18	0.6883
3564.94	0.7033
3573.71	0.7127
3582.48	0.7283
3591.25	0.741
3600.02	0.7547
3608.79	0.7617
3617.55	0.767
3626.32	0.7713
3635.09	0.779
3643.86	0.784
3652.63	0.7877
3661.4	0.79
3670.16	0.7927
3678.93	0.792
3687.7	0.793
3696.47	0.791
3705.24	0.794
3714.01	0.792
3722.77	0.791
3731.54	0.791
3740.31	0.794
3749.08	0.7927
3757.85	0.795
3766.62	0.792
3775.38	0.794
3784.15	0.7943
3792.92	0.795
3801.69	0.7933
3810.46	0.792
3819.22	0.792
3827.99	0.79
3836.76	0.789
3845.53	0.787
3854.3	0.785
3863.07	0.784
3871.83	0.784
3880.6	0.784
3889.37	0.784
3898.14	0.782
3906.91	0.782
