Infrared Spectrum: PHOSPHORIC ACID, DIETHYL 2-ETHYLHEXYL ESTER
Formula: C12 H27 O4 P
CAS: 88795-49-7
Class: COBLENTZ
Instrument: Not specified, most likely a prism, grating, or hybrid spectrometer.
Sampling: TRANSMISSION
Path length: SMEAR
Resolution: 4
Origin: TENNESSEE EASTMAN COMPANY, RESEARCH LABORATORIES
MICROMETERS	TRANSMITTANCE
2.032	0.991
2.07206	0.991
2.11213	0.986
2.15219	0.983
2.19226	0.981
2.23232	0.974
2.27239	0.969
2.31245	0.964
2.35252	0.963
2.39258	0.963
2.43265	0.961
2.47271	0.961
2.51278	0.958
2.55284	0.959
2.59291	0.964
2.63297	0.973
2.67304	0.976
2.7131	0.976
2.75317	0.976
2.79323	0.974
2.8333	0.959
2.87336	0.948
2.91343	0.941
2.95349	0.943
2.99356	0.941
3.03362	0.943
3.07369	0.943
3.11375	0.943
3.15382	0.943
3.19388	0.943
3.23395	0.943
3.27401	0.941
3.31408	0.924
3.35414	0.787
3.39421	0.471
3.43427	0.558
3.47434	0.655
3.5144	0.71
3.55447	0.891
3.59453	0.918
3.6346	0.924
3.67466	0.928
3.71473	0.931
3.75479	0.939
3.79486	0.941
3.83492	0.943
3.87499	0.946
3.91505	0.948
3.95512	0.948
3.99518	0.949
4.03525	0.951
4.07531	0.949
4.11538	0.949
4.15544	0.951
4.19551	0.954
4.23557	0.959
4.27564	0.986
4.3157	1.006
4.35577	0.998
4.39583	0.963
4.4359	0.954
4.47596	0.954
4.51603	0.953
4.55609	0.953
4.59616	0.953
4.63622	0.953
4.67629	0.953
4.71635	0.953
4.75642	0.953
4.79648	0.953
4.83655	0.953
4.87661	0.953
4.91668	0.953
4.95674	0.953
4.99681	0.953
5.03687	0.953
5.07694	0.951
5.117	0.948
5.15707	0.946
5.19713	0.944
5.2372	0.943
5.27726	0.939
5.31733	0.938
5.35739	0.936
5.39746	0.939
5.43752	0.939
5.47759	0.941
5.51765	0.941
5.55772	0.943
5.59778	0.941
5.63785	0.941
5.67791	0.943
5.71798	0.943
5.75804	0.943
5.79811	0.943
5.83817	0.943
5.87824	0.946
5.9183	0.953
5.95837	0.951
5.99843	0.954
6.0385	0.949
6.07856	0.949
6.11863	0.948
6.15869	0.943
6.19876	0.941
6.23882	0.941
6.27889	0.941
6.31895	0.944
6.35902	0.946
6.39908	0.949
6.43915	0.954
6.47921	0.954
6.51928	0.956
6.55934	0.959
6.59941	0.959
6.63947	0.953
6.67954	0.936
6.7196	0.897
6.75967	0.832
6.79973	0.757
6.8398	0.732
6.87986	0.79
6.91993	0.804
6.95999	0.871
7.00006	0.908
7.04012	0.918
7.08019	0.918
7.12025	0.906
7.16032	0.834
7.20038	0.782
7.24045	0.806
7.28051	0.841
7.32058	0.831
7.36064	0.881
7.40071	0.914
7.44077	0.916
7.48084	0.921
7.5209	0.921
7.56097	0.914
7.60103	0.903
7.6411	0.842
7.68116	0.759
7.72123	0.66
7.76129	0.541
7.80136	0.431
7.84142	0.418
7.88149	0.443
7.92155	0.451
7.96162	0.55
8.00168	0.668
8.04175	0.762
8.08181	0.821
8.12188	0.851
8.16194	0.869
8.20201	0.879
8.24207	0.882
8.28214	0.881
8.3222	0.882
8.36227	0.884
8.40233	0.879
8.4424	0.866
8.48246	0.834
8.52253	0.762
8.56259	0.705
8.60266	0.727
8.64272	0.759
8.68279	0.784
8.72285	0.794
8.76292	0.804
8.80298	0.809
8.84305	0.809
8.88311	0.804
8.92318	0.782
8.96324	0.76
9.00331	0.729
9.04337	0.685
9.08344	0.657
9.1235	0.662
9.16357	0.66
9.20363	0.63
9.2437	0.59
9.28376	0.553
9.32383	0.535
9.36389	0.51
9.40396	0.458
9.44402	0.386
9.48409	0.292
9.52415	0.21
9.56422	0.157
9.60428	0.13
9.64435	0.123
9.68441	0.123
9.72448	0.132
9.76454	0.163
9.80461	0.215
9.84467	0.285
9.88474	0.367
9.9248	0.439
9.96487	0.478
10.0049	0.503
10.045	0.511
10.0851	0.488
10.1251	0.444
10.1652	0.404
10.2053	0.387
10.2453	0.382
10.2854	0.403
10.3255	0.428
10.3655	0.468
10.4056	0.496
10.4456	0.523
10.4857	0.536
10.5258	0.556
10.5658	0.575
10.6059	0.6
10.646	0.64
10.686	0.687
10.7261	0.732
10.7662	0.767
10.8062	0.802
10.8463	0.821
10.8864	0.831
10.9264	0.837
10.9665	0.842
11.0066	0.846
11.0466	0.847
11.0867	0.849
11.1268	0.849
11.1668	0.849
11.2069	0.849
11.2469	0.846
11.287	0.834
11.3271	0.816
11.3671	0.795
11.4072	0.782
11.4473	0.774
11.4873	0.77
11.5274	0.77
11.5675	0.774
11.6075	0.782
11.6476	0.789
11.6877	0.799
11.7277	0.807
11.7678	0.814
11.8079	0.819
11.8479	0.827
11.888	0.832
11.928	0.832
11.9681	0.831
12.0082	0.821
12.0482	0.804
12.0883	0.774
12.1284	0.737
12.1684	0.725
12.2085	0.722
12.2486	0.724
12.2886	0.732
12.3287	0.739
12.3688	0.74
12.4088	0.74
12.4489	0.737
12.489	0.739
12.529	0.745
12.5691	0.77
12.6092	0.799
12.6492	0.814
12.6893	0.826
12.7293	0.832
12.7694	0.834
12.8095	0.834
12.8495	0.834
12.8896	0.832
12.9297	0.829
12.9697	0.826
13.0098	0.822
13.0499	0.817
13.0899	0.812
13.13	0.804
13.1701	0.799
13.2101	0.794
13.2502	0.789
13.2903	0.787
13.3303	0.785
13.3704	0.787
13.4105	0.79
13.4505	0.794
13.4906	0.797
13.5306	0.799
13.5707	0.799
13.6108	0.797
13.6508	0.797
13.6909	0.797
13.731	0.801
13.771	0.806
13.8111	0.811
13.8512	0.812
13.8912	0.814
13.9313	0.814
13.9714	0.814
14.0114	0.816
14.0515	0.814
14.0916	0.812
14.1316	0.807
14.1717	0.804
14.2118	0.801
14.2518	0.794
14.2919	0.789
14.3319	0.784
14.372	0.779
14.4121	0.774
14.4521	0.767
14.4922	0.76
14.5323	0.752
14.5723	0.747
14.6124	0.744
14.6525	0.742
14.6925	0.735
14.7326	0.732
14.7727	0.73
14.8127	0.725
14.8528	0.722
14.8929	0.714
14.9329	0.704
14.973	0.7
15.0131	0.697
15.0531	0.693
15.0932	0.69
15.1332	0.687
15.1733	0.682
15.2134	0.678
15.2534	0.675
15.2935	0.672
15.3336	0.67
15.3736	0.67
15.4137	0.668
15.4538	0.668
15.4938	0.665
15.5339	0.663
15.574	0.662
15.614	0.658
15.6541	0.657
15.6942	0.655
15.7342	0.653
15.7743	0.653
15.8144	0.653
15.8544	0.653
15.8945	0.653
15.9345	0.653
15.9746	0.653
