Infrared Spectrum: DIBENZYLAMINE, N-ISOBUTENYL-
Formula: C18 H21 N
CAS: 88893-11-2
Boiling point: 109-114 C AT 0.8-0.9 mmHg
Class: COBLENTZ
Instrument: Not specified, most likely a prism, grating, or hybrid spectrometer.
Sampling: TRANSMISSION
Path length: SMEAR
Resolution: 4
Origin: TENNESSEE EASTMAN COMPANY, RESEARCH LABORATORIES
MICROMETERS	TRANSMITTANCE
2.055	1.023
2.09589	1.018
2.13679	1.013
2.17768	1.015
2.21858	1.01
2.25947	0.989
2.30036	0.986
2.34126	0.989
2.38215	0.989
2.42305	0.986
2.46394	0.965
2.50483	1
2.54573	0.991
2.58662	0.989
2.62752	0.989
2.66841	0.988
2.7093	0.989
2.7502	0.988
2.79109	0.988
2.83199	0.988
2.87288	0.979
2.91377	0.971
2.95467	0.967
2.99556	0.965
3.03646	0.967
3.07735	0.969
3.11824	0.965
3.15914	0.95
3.20003	0.901
3.24093	0.636
3.28182	0.467
3.32271	0.741
3.36361	0.44
3.4045	0.394
3.4454	0.445
3.48629	0.506
3.52718	0.425
3.56808	0.717
3.60897	0.835
3.64987	0.828
3.69076	0.874
3.73165	0.925
3.77255	0.938
3.81344	0.947
3.85434	0.95
3.89523	0.957
3.93612	0.967
3.97702	0.969
4.01791	0.967
4.0588	0.969
4.0997	0.972
4.14059	0.971
4.18149	0.971
4.22238	0.972
4.26327	0.962
4.30417	0.948
4.34506	0.957
4.38596	0.965
4.42685	0.965
4.46774	0.965
4.50864	0.967
4.54953	0.965
4.59043	0.965
4.63132	0.969
4.67221	0.971
4.71311	0.969
4.754	0.967
4.7949	0.965
4.83579	0.965
4.87668	0.962
4.91758	0.964
4.95847	0.962
4.99937	0.954
5.04026	0.938
5.08115	0.896
5.12205	0.87
5.16294	0.938
5.20384	0.947
5.24473	0.928
5.28562	0.906
5.32652	0.906
5.36741	0.921
5.40831	0.937
5.4492	0.925
5.49009	0.896
5.53099	0.867
5.57188	0.913
5.61278	0.921
5.65367	0.908
5.69456	0.886
5.73546	0.841
5.77635	0.841
5.81725	0.784
5.85814	0.744
5.89903	0.761
5.93993	0.598
5.98082	0.629
6.02172	0.732
6.06261	0.761
6.1035	0.824
6.1444	0.857
6.18529	0.845
6.22619	0.67
6.26708	0.801
6.30797	0.828
6.34887	0.877
6.38976	0.874
6.43066	0.879
6.47155	0.843
6.51244	0.874
6.55334	0.836
6.59423	0.799
6.63513	0.333
6.67602	0.544
6.71691	0.785
6.75781	0.729
6.7987	0.608
6.8396	0.139
6.88049	0.345
6.92138	0.488
6.96228	0.67
7.00317	0.761
7.04407	0.797
7.08496	0.795
7.12585	0.744
7.16675	0.576
7.20764	0.408
7.24854	0.474
7.28943	0.484
7.33032	0.426
7.37122	0.491
7.41211	0.6
7.45301	0.595
7.4939	0.59
7.53479	0.605
7.57569	0.625
7.61658	0.651
7.65748	0.676
7.69837	0.704
7.73926	0.705
7.78016	0.71
7.82105	0.717
7.86195	0.693
7.90284	0.67
7.94373	0.659
7.98463	0.656
8.02552	0.661
8.06641	0.71
8.10731	0.773
8.1482	0.785
8.1891	0.744
8.22999	0.673
8.27088	0.595
8.31178	0.602
8.35267	0.653
8.39357	0.688
8.43446	0.636
8.47535	0.573
8.51625	0.489
8.55714	0.377
8.59804	0.346
8.63893	0.34
8.67982	0.404
8.72072	0.501
8.76161	0.564
8.80251	0.576
8.8434	0.547
8.88429	0.511
8.92519	0.5
8.96608	0.537
9.00698	0.566
9.04787	0.612
9.08876	0.675
9.12966	0.731
9.17055	0.729
9.21145	0.539
9.25234	0.435
9.29323	0.481
9.33413	0.619
9.37502	0.709
9.41592	0.727
9.45681	0.746
9.4977	0.773
9.5386	0.789
9.57949	0.795
9.62039	0.755
9.66128	0.469
9.70217	0.534
9.74307	0.744
9.78396	0.797
9.82486	0.819
9.86575	0.819
9.90664	0.799
9.94754	0.772
9.98843	0.784
10.0293	0.734
10.0702	0.639
10.1111	0.547
10.152	0.494
10.1929	0.471
10.2338	0.498
10.2747	0.562
10.3156	0.595
10.3565	0.622
10.3974	0.647
10.4383	0.661
10.4792	0.687
10.5201	0.721
10.5609	0.746
10.6018	0.763
10.6427	0.782
10.6836	0.79
10.7245	0.789
10.7654	0.772
10.8063	0.726
10.8472	0.688
10.8881	0.697
10.929	0.736
10.9699	0.746
11.0108	0.731
11.0517	0.743
11.0926	0.765
11.1335	0.778
11.1744	0.765
11.2153	0.761
11.2561	0.78
11.297	0.801
11.3379	0.824
11.3788	0.833
11.4197	0.836
11.4606	0.838
11.5015	0.829
11.5424	0.801
11.5833	0.743
11.6242	0.637
11.6651	0.534
11.706	0.494
11.7469	0.503
11.7878	0.559
11.8287	0.629
11.8696	0.698
11.9104	0.751
11.9513	0.778
11.9922	0.778
12.0331	0.76
12.074	0.748
12.1149	0.748
12.1558	0.748
12.1967	0.746
12.2376	0.748
12.2785	0.746
12.3194	0.743
12.3603	0.744
12.4012	0.744
12.4421	0.746
12.483	0.751
12.5239	0.77
12.5648	0.795
12.6056	0.802
12.6465	0.818
12.6874	0.824
12.7283	0.826
12.7692	0.826
12.8101	0.824
12.851	0.819
12.8919	0.809
12.9328	0.797
12.9737	0.778
13.0146	0.751
13.0555	0.709
13.0964	0.641
13.1373	0.52
13.1782	0.353
13.2191	0.224
13.26	0.158
13.3008	0.137
13.3417	0.132
13.3826	0.134
13.4235	0.13
13.4644	0.125
13.5053	0.12
13.5462	0.119
13.5871	0.125
13.628	0.168
13.6689	0.239
13.7098	0.348
13.7507	0.448
13.7916	0.534
13.8325	0.588
13.8734	0.61
13.9143	0.619
13.9551	0.619
13.996	0.6
14.0369	0.562
14.0778	0.491
14.1187	0.394
14.1596	0.278
14.2005	0.183
14.2414	0.129
14.2823	0.093
14.3232	0.085
14.3641	0.115
14.405	0.192
14.4459	0.304
14.4868	0.426
14.5277	0.52
14.5686	0.581
14.6095	0.62
14.6503	0.637
14.6912	0.647
14.7321	0.654
14.773	0.654
14.8139	0.653
14.8548	0.644
14.8957	0.639
14.9366	0.634
14.9775	0.639
15.0184	0.646
15.0593	0.642
15.1002	0.641
15.1411	0.641
15.182	0.637
15.2229	0.632
15.2638	0.627
15.3046	0.62
15.3455	0.617
15.3864	0.612
15.4273	0.605
15.4682	0.6
15.5091	0.598
15.55	0.596
15.5909	0.591
15.6318	0.585
15.6727	0.579
15.7136	0.579
15.7545	0.581
15.7954	0.581
15.8363	0.581
15.8772	0.583
15.9181	0.583
15.959	0.583
