Infrared Spectrum: 4,4'-(1-P-HYDROXYPHENYL-2-METHYLETHYLENE)DIPHENOL
Formula: C21 H20 O3
CAS: 88900-03-2
State: SOLID (KBr PELLET)
Class: COBLENTZ
Instrument: Not specified, most likely a prism, grating, or hybrid spectrometer.
Sampling: TRANSMISSION
Resolution: 4
Origin: TENNESSEE EASTMAN COMPANY, RESEARCH LABORATORIES
MICROMETERS	TRANSMITTANCE
2.041	0.984
2.08191	0.988
2.12283	0.989
2.16374	0.984
2.20466	0.926
2.24557	0.908
2.28649	0.882
2.3274	0.848
2.36832	0.829
2.40923	0.819
2.45015	0.798
2.49106	0.785
2.53198	0.771
2.57289	0.751
2.61381	0.741
2.65472	0.737
2.69563	0.718
2.73655	0.529
2.77746	0.318
2.81838	0.212
2.85929	0.132
2.90021	0.1
2.94112	0.073
2.98204	0.066
3.02295	0.064
3.06387	0.069
3.10478	0.1
3.1457	0.143
3.18661	0.202
3.22753	0.27
3.26844	0.303
3.30935	0.287
3.35027	0.393
3.39118	0.231
3.4321	0.339
3.47301	0.362
3.51393	0.465
3.55484	0.502
3.59576	0.538
3.63667	0.551
3.67759	0.541
3.7185	0.536
3.75942	0.543
3.80033	0.565
3.84125	0.572
3.88216	0.572
3.92307	0.589
3.96399	0.599
4.0049	0.609
4.04582	0.606
4.08673	0.606
4.12765	0.613
4.16856	0.623
4.20948	0.642
4.25039	0.642
4.29131	0.645
4.33222	0.657
4.37314	0.679
4.41405	0.684
4.45497	0.691
4.49588	0.695
4.53679	0.698
4.57771	0.7
4.61862	0.701
4.65954	0.701
4.70045	0.701
4.74137	0.7
4.78228	0.695
4.8232	0.695
4.86411	0.696
4.90503	0.696
4.94594	0.7
4.98686	0.705
5.02777	0.713
5.06869	0.715
5.1096	0.715
5.15051	0.713
5.19143	0.713
5.23234	0.7
5.27326	0.672
5.31417	0.667
5.35509	0.701
5.396	0.722
5.43692	0.727
5.47783	0.729
5.51875	0.729
5.55966	0.724
5.60058	0.72
5.64149	0.71
5.6824	0.708
5.72332	0.705
5.76423	0.703
5.80515	0.7
5.84606	0.698
5.88698	0.681
5.92789	0.679
5.96881	0.66
6.00972	0.626
6.05064	0.596
6.09155	0.55
6.13247	0.509
6.17338	0.361
6.2143	0.166
6.25521	0.219
6.29612	0.436
6.33704	0.599
6.37795	0.66
6.41887	0.66
6.45978	0.649
6.5007	0.596
6.54161	0.32
6.58253	0.022
6.62344	0.088
6.66436	0.293
6.70527	0.405
6.74619	0.453
6.7871	0.378
6.82802	0.236
6.86893	0.131
6.90984	0.18
6.95076	0.282
6.99167	0.424
7.03259	0.58
7.0735	0.64
7.11442	0.625
7.15533	0.568
7.19625	0.471
7.23716	0.367
7.27808	0.321
7.31899	0.301
7.35991	0.301
7.40082	0.313
7.44174	0.332
7.48265	0.357
7.52356	0.386
7.56448	0.454
7.60539	0.519
7.64631	0.568
7.68722	0.574
7.72814	0.548
7.76905	0.522
7.80997	0.483
7.85088	0.352
7.8918	0.224
7.93271	0.136
7.97363	0.085
8.01454	0.052
8.05546	0.042
8.09637	0.04
8.13728	0.039
8.1782	0.042
8.21911	0.059
8.26003	0.08
8.30094	0.109
8.34186	0.129
8.38277	0.151
8.42369	0.168
8.4646	0.144
8.50552	0.115
8.54643	0.214
8.58735	0.33
8.62826	0.39
8.66918	0.439
8.71009	0.507
8.751	0.574
8.79192	0.618
8.83283	0.633
8.87375	0.632
8.91466	0.575
8.95558	0.431
8.99649	0.386
9.03741	0.441
9.07832	0.485
9.11924	0.55
9.16015	0.637
9.20107	0.696
9.24198	0.732
9.2829	0.751
9.32381	0.763
9.36472	0.768
9.40564	0.773
9.44655	0.778
9.48747	0.775
9.52838	0.751
9.5693	0.739
9.61021	0.761
9.65113	0.783
9.69204	0.788
9.73296	0.79
9.77387	0.787
9.81479	0.686
9.8557	0.681
9.89662	0.775
9.93753	0.804
9.97844	0.812
10.0194	0.814
10.0603	0.817
10.1012	0.829
10.1421	0.843
10.183	0.85
10.2239	0.848
10.2648	0.846
10.3058	0.848
10.3467	0.85
10.3876	0.841
10.4285	0.822
10.4694	0.822
10.5103	0.827
10.5512	0.831
10.5922	0.833
10.6331	0.822
10.674	0.817
10.7149	0.816
10.7558	0.824
10.7967	0.838
10.8377	0.848
10.8786	0.855
10.9195	0.862
10.9604	0.86
11.0013	0.855
11.0422	0.846
11.0831	0.843
11.1241	0.834
11.165	0.829
11.2059	0.824
11.2468	0.822
11.2877	0.821
11.3286	0.814
11.3695	0.795
11.4105	0.78
11.4514	0.764
11.4923	0.763
11.5332	0.761
11.5741	0.739
11.615	0.689
11.6559	0.635
11.6969	0.575
11.7378	0.504
11.7787	0.439
11.8196	0.349
11.8605	0.269
11.9014	0.197
11.9423	0.158
11.9833	0.139
12.0242	0.134
12.0651	0.139
12.106	0.161
12.1469	0.192
12.1878	0.233
12.2288	0.284
12.2697	0.342
12.3106	0.39
12.3515	0.432
12.3924	0.459
12.4333	0.473
12.4742	0.495
12.5152	0.509
12.5561	0.522
12.597	0.553
12.6379	0.591
12.6788	0.626
12.7197	0.647
12.7606	0.66
12.8016	0.666
12.8425	0.654
12.8834	0.626
12.9243	0.584
12.9652	0.512
13.0061	0.451
13.047	0.4
13.088	0.359
13.1289	0.337
13.1698	0.327
13.2107	0.332
13.2516	0.378
13.2925	0.436
13.3334	0.494
13.3744	0.538
13.4153	0.568
13.4562	0.587
13.4971	0.601
13.538	0.611
13.5789	0.614
13.6198	0.62
13.6608	0.621
13.7017	0.628
13.7426	0.628
13.7835	0.63
13.8244	0.626
13.8653	0.625
13.9063	0.623
13.9472	0.621
13.9881	0.621
14.029	0.621
14.0699	0.623
14.1108	0.623
14.1517	0.625
14.1927	0.62
14.2336	0.62
14.2745	0.618
14.3154	0.614
14.3563	0.611
14.3972	0.611
14.4381	0.613
14.4791	0.611
14.52	0.611
14.5609	0.613
14.6018	0.616
14.6427	0.616
14.6836	0.616
14.7245	0.614
14.7655	0.609
14.8064	0.604
14.8473	0.599
14.8882	0.596
14.9291	0.586
14.97	0.574
15.0109	0.562
15.0519	0.56
15.0928	0.558
15.1337	0.555
15.1746	0.543
15.2155	0.534
15.2564	0.528
15.2974	0.514
15.3383	0.509
15.3792	0.5
15.4201	0.495
15.461	0.483
15.5019	0.473
15.5428	0.468
15.5838	0.461
15.6247	0.456
15.6656	0.454
15.7065	0.449
15.7474	0.444
15.7883	0.439
15.8292	0.436
15.8702	0.427
15.9111	0.422
15.952	0.42
15.9929	0.417
