Infrared Spectrum: 5-NITRAMINO-1,2,4-THIADIAZOLE
Formula: C2 H2 N4 O2 S
CAS: 88905-86-6
Class: COBLENTZ
Instrument: Not specified, most likely a prism, grating, or hybrid spectrometer.
Sampling: TRANSMISSION
Resolution: 4
Origin: TENNESSEE EASTMAN COMPANY, RESEARCH LABORATORIES
MICROMETERS	TRANSMITTANCE
2.034	0.948
2.07501	0.952
2.11603	0.955
2.15704	0.957
2.19806	0.958
2.23907	0.962
2.28009	0.964
2.3211	0.964
2.36212	0.965
2.40313	0.953
2.44415	0.955
2.48516	0.953
2.52618	0.953
2.56719	0.955
2.60821	0.957
2.64922	0.957
2.69024	0.952
2.73125	0.924
2.77227	0.805
2.81328	0.753
2.8543	0.712
2.89531	0.682
2.93632	0.68
2.97734	0.717
3.01835	0.752
3.05937	0.758
3.10038	0.719
3.1414	0.635
3.18241	0.314
3.22343	0.189
3.26444	0.047
3.30546	0.111
3.34647	0.092
3.38749	0.117
3.4285	0.123
3.46952	0.064
3.51053	0.073
3.55155	0.114
3.59256	0.088
3.63358	0.157
3.67459	0.218
3.71561	0.249
3.75662	0.223
3.79764	0.307
3.83865	0.311
3.87966	0.432
3.92068	0.529
3.96169	0.579
4.00271	0.576
4.04372	0.639
4.08474	0.719
4.12575	0.748
4.16677	0.784
4.20778	0.818
4.2488	0.829
4.28981	0.813
4.33083	0.818
4.37184	0.854
4.41286	0.851
4.45387	0.849
4.49489	0.841
4.5359	0.929
4.57692	0.933
4.61793	0.945
4.65895	0.941
4.69996	0.943
4.74097	0.935
4.78199	0.943
4.823	0.952
4.86402	0.947
4.90503	0.911
4.94605	0.849
4.98706	0.916
5.02808	0.948
5.06909	0.945
5.11011	0.933
5.15112	0.929
5.19214	0.935
5.23315	0.9
5.27417	0.887
5.31518	0.883
5.3562	0.883
5.39721	0.863
5.43823	0.699
5.47924	0.767
5.52026	0.841
5.56127	0.834
5.60228	0.81
5.6433	0.815
5.68431	0.823
5.72533	0.801
5.76634	0.77
5.80736	0.729
5.84837	0.699
5.88939	0.678
5.9304	0.647
5.97142	0.641
6.01243	0.6
6.05345	0.634
6.09446	0.7
6.13548	0.688
6.17649	0.688
6.21751	0.707
6.25852	0.635
6.29954	0.514
6.34055	0.068
6.38157	0.017
6.42258	0.129
6.46359	0.169
6.50461	0.049
6.54562	0.017
6.58664	0.013
6.62765	0.049
6.66867	0.099
6.70968	0.087
6.7507	0.09
6.79171	0.266
6.83273	0.377
6.87374	0.319
6.91476	0.459
6.95577	0.507
6.99679	0.535
7.0378	0.358
7.07882	0.2
7.11983	0.121
7.16085	0.304
7.20186	0.567
7.24288	0.704
7.28389	0.758
7.32491	0.788
7.36592	0.779
7.40693	0.794
7.44795	0.781
7.48896	0.753
7.52998	0.659
7.57099	0.355
7.61201	0.112
7.65302	0.389
7.69404	0.478
7.73505	0.194
7.77607	0.152
7.81708	0.21
7.8581	0.085
7.89911	0.023
7.94013	0.015
7.98114	0.015
8.02216	0.015
8.06317	0.017
8.10419	0.073
8.1452	0.189
8.18622	0.304
8.22723	0.483
8.26824	0.562
8.30926	0.618
8.35027	0.659
8.39129	0.676
8.4323	0.656
8.47332	0.675
8.51433	0.699
8.55535	0.716
8.59636	0.724
8.63738	0.726
8.67839	0.719
8.71941	0.694
8.76042	0.685
8.80144	0.639
8.84245	0.369
8.88347	0.042
8.92448	0.027
8.9655	0.164
9.00651	0.482
9.04753	0.594
9.08854	0.687
9.12955	0.721
9.17057	0.719
9.21158	0.687
9.2526	0.719
9.29361	0.789
9.33463	0.813
9.37564	0.822
9.41666	0.81
9.45767	0.808
9.49869	0.798
9.5397	0.798
9.58072	0.806
9.62173	0.798
9.66275	0.781
9.70376	0.741
9.74478	0.434
9.78579	0.054
9.82681	0.087
9.86782	0.328
9.90884	0.572
9.94985	0.697
9.99086	0.757
10.0319	0.805
10.0729	0.817
10.1139	0.827
10.1549	0.83
10.1959	0.835
10.237	0.835
10.278	0.837
10.319	0.835
10.36	0.835
10.401	0.835
10.442	0.835
10.483	0.834
10.5241	0.834
10.5651	0.832
10.6061	0.827
10.6471	0.827
10.6881	0.817
10.7291	0.823
10.7701	0.832
10.8112	0.796
10.8522	0.673
10.8932	0.646
10.9342	0.714
10.9752	0.712
11.0162	0.694
11.0572	0.656
11.0983	0.593
11.1393	0.4
11.1803	0.148
11.2213	0.046
11.2623	0.104
11.3033	0.234
11.3444	0.316
11.3854	0.314
11.4264	0.249
11.4674	0.164
11.5084	0.126
11.5494	0.128
11.5904	0.172
11.6315	0.229
11.6725	0.292
11.7135	0.347
11.7545	0.377
11.7955	0.401
11.8365	0.425
11.8775	0.454
11.9186	0.487
11.9596	0.529
12.0006	0.576
12.0416	0.61
12.0826	0.644
12.1236	0.675
12.1646	0.695
12.2057	0.711
12.2467	0.724
12.2877	0.735
12.3287	0.745
12.3697	0.755
12.4107	0.762
12.4518	0.765
12.4928	0.769
12.5338	0.765
12.5748	0.735
12.6158	0.668
12.6568	0.54
12.6978	0.307
12.7389	0.123
12.7799	0.08
12.8209	0.145
12.8619	0.153
12.9029	0.047
12.9439	0.123
12.9849	0.28
13.026	0.43
13.067	0.505
13.108	0.611
13.149	0.695
13.19	0.717
13.231	0.738
13.272	0.748
13.3131	0.764
13.3541	0.776
13.3951	0.791
13.4361	0.8
13.4771	0.806
13.5181	0.808
13.5591	0.815
13.6002	0.818
13.6412	0.825
13.6822	0.825
13.7232	0.829
13.7642	0.829
13.8052	0.829
13.8463	0.827
13.8873	0.815
13.9283	0.806
13.9693	0.762
14.0103	0.634
14.0513	0.377
14.0923	0.319
14.1334	0.422
14.1744	0.547
14.2154	0.646
14.2564	0.716
14.2974	0.755
14.3384	0.777
14.3794	0.794
14.4205	0.803
14.4615	0.808
14.5025	0.811
14.5435	0.811
14.5845	0.808
14.6255	0.806
14.6665	0.801
14.7076	0.794
14.7486	0.793
14.7896	0.789
14.8306	0.777
14.8716	0.769
14.9126	0.758
14.9537	0.736
14.9947	0.712
15.0357	0.697
15.0767	0.697
15.1177	0.697
15.1587	0.663
15.1997	0.605
15.2408	0.517
15.2818	0.466
15.3228	0.463
15.3638	0.471
15.4048	0.466
15.4458	0.435
15.4868	0.418
15.5279	0.418
15.5689	0.446
15.6099	0.473
15.6509	0.495
15.6919	0.511
15.7329	0.517
15.7739	0.519
15.815	0.517
15.856	0.509
15.897	0.505
15.938	0.497
15.979	0.49
