Infrared Spectrum: METHYL HYDROGEN S-ACETYLMERCAPTOSUCCINATE
Formula: C7 H10 O5 S
CAS: 88942-56-7
Class: COBLENTZ
Instrument: Not specified, most likely a prism, grating, or hybrid spectrometer.
Sampling: TRANSMISSION
Path length: FILM
Resolution: 4
Origin: ARTHUR D. LITTLE, INC.
1/CM	TRANSMITTANCE
586.957	0.633
595.653	0.591
604.348	0.599
613.044	0.604
621.74	0.648
630.435	0.714
639.131	0.771
647.827	0.807
656.522	0.817
665.218	0.819
673.914	0.846
682.609	0.849
691.305	0.846
700	0.833
708.696	0.826
717.392	0.826
726.087	0.823
734.783	0.823
743.479	0.826
752.174	0.821
760.87	0.814
769.566	0.803
778.261	0.794
786.957	0.788
795.653	0.782
804.348	0.78
813.044	0.784
821.74	0.778
830.435	0.777
839.131	0.769
847.827	0.749
856.522	0.746
865.218	0.778
873.913	0.791
882.609	0.788
891.305	0.784
900	0.771
908.696	0.768
917.392	0.751
926.087	0.742
934.783	0.72
943.479	0.649
952.174	0.545
960.87	0.561
969.566	0.63
978.261	0.691
986.957	0.698
995.653	0.661
1004.35	0.675
1013.04	0.68
1021.74	0.678
1030.44	0.743
1039.13	0.784
1047.83	0.785
1056.52	0.781
1065.22	0.765
1073.91	0.752
1082.61	0.722
1091.3	0.664
1100	0.6
1108.7	0.538
1117.39	0.464
1126.09	0.382
1134.78	0.389
1143.48	0.409
1152.17	0.371
1160.87	0.344
1169.57	0.357
1178.26	0.39
1186.96	0.408
1195.65	0.396
1204.35	0.376
1213.04	0.363
1221.74	0.353
1230.44	0.348
1239.13	0.36
1247.83	0.402
1256.52	0.419
1265.22	0.426
1273.91	0.437
1282.61	0.437
1291.3	0.437
1300	0.437
1308.7	0.45
1317.39	0.51
1326.09	0.573
1334.78	0.603
1343.48	0.6
1352.17	0.534
1360.87	0.535
1369.57	0.632
1378.26	0.671
1386.96	0.633
1395.65	0.573
1404.35	0.551
1413.04	0.542
1421.74	0.542
1430.44	0.451
1439.13	0.371
1447.83	0.507
1456.52	0.675
1465.22	0.755
1473.91	0.808
1482.61	0.827
1491.3	0.835
1500	0.835
1508.7	0.835
1517.39	0.833
1526.09	0.836
1534.78	0.842
1543.48	0.836
1552.17	0.835
1560.87	0.83
1569.57	0.832
1578.26	0.829
1586.96	0.827
1595.65	0.824
1604.35	0.816
1613.04	0.803
1621.74	0.787
1630.44	0.764
1639.13	0.709
1647.83	0.662
1656.52	0.628
1665.22	0.574
1673.91	0.507
1682.61	0.4
1691.3	0.247
1700	0.131
1708.7	0.114
1717.39	0.114
1726.09	0.124
1734.78	0.115
1743.48	0.105
1752.17	0.159
1760.87	0.306
1769.57	0.548
1778.26	0.665
1786.96	0.707
1795.65	0.7
1804.35	0.767
1813.04	0.798
1821.74	0.81
1830.44	0.821
1839.13	0.826
1847.83	0.83
1856.52	0.83
1865.22	0.832
1873.91	0.835
1882.61	0.846
1891.3	0.85
1900	0.85
1908.7	0.852
1917.39	0.853
1926.09	0.855
1934.78	0.856
1943.48	0.859
1952.17	0.861
1960.87	0.856
1969.57	0.859
1978.26	0.859
1986.96	0.859
1995.65	0.861
2004.35	0.861
2013.04	0.859
2021.74	0.859
2030.44	0.858
2039.13	0.859
2047.83	0.856
2056.52	0.856
2065.22	0.856
2073.91	0.856
2082.61	0.856
2091.3	0.858
2100	0.858
2108.7	0.856
2117.39	0.859
2126.09	0.858
2134.78	0.858
2143.48	0.856
2152.17	0.858
2160.87	0.858
2169.57	0.859
2178.26	0.861
2186.96	0.856
2195.65	0.859
2204.35	0.859
2213.04	0.862
2221.74	0.859
2230.43	0.859
2239.13	0.856
2247.83	0.856
2256.52	0.858
2265.22	0.859
2273.91	0.859
2282.61	0.859
2291.3	0.861
2300	0.852
2308.7	0.848
2317.39	0.839
2326.09	0.835
2334.78	0.836
2343.48	0.835
2352.17	0.835
2360.87	0.835
2369.57	0.836
2378.26	0.842
2386.96	0.842
2395.65	0.84
2404.35	0.836
2413.04	0.836
2421.74	0.833
2430.43	0.821
2439.13	0.821
2447.83	0.816
2456.52	0.811
2465.22	0.808
2473.91	0.807
2482.61	0.801
2491.3	0.798
2500	0.793
2508.7	0.787
2517.39	0.782
2526.09	0.78
2534.78	0.775
2543.48	0.769
2552.17	0.767
2560.87	0.761
2569.57	0.759
2578.26	0.758
2586.96	0.759
2595.65	0.758
2604.35	0.759
2613.04	0.756
2621.74	0.755
2630.43	0.752
2639.13	0.749
2647.83	0.748
2656.52	0.746
2665.22	0.746
2673.91	0.748
2682.61	0.751
2691.3	0.756
2700	0.756
2708.7	0.761
2717.39	0.764
2726.09	0.759
2734.78	0.756
2743.48	0.752
2752.17	0.751
2760.87	0.748
2769.57	0.748
2778.26	0.746
2786.96	0.746
2795.65	0.743
2804.35	0.742
2813.04	0.732
2821.74	0.723
2830.43	0.716
2839.13	0.7
2847.83	0.688
2856.52	0.678
2865.22	0.68
2873.91	0.671
2882.61	0.659
2891.3	0.646
2900	0.632
2908.7	0.62
2917.39	0.61
2926.09	0.597
2934.78	0.596
2943.48	0.589
2952.17	0.565
2960.87	0.532
2969.57	0.577
2978.26	0.602
2986.96	0.603
2995.65	0.599
3004.35	0.591
3013.04	0.591
3021.74	0.596
3030.43	0.596
3039.13	0.599
3047.83	0.602
3056.52	0.604
3065.22	0.607
3073.91	0.607
3082.61	0.606
3091.3	0.604
3100	0.604
3108.7	0.603
3117.39	0.603
3126.09	0.603
3134.78	0.603
3143.48	0.603
3152.17	0.603
3160.87	0.6
3169.57	0.599
3178.26	0.596
3186.96	0.594
3195.65	0.593
3204.35	0.593
3213.04	0.591
3221.74	0.59
3230.43	0.591
3239.13	0.591
3247.83	0.591
3256.52	0.594
3265.22	0.596
3273.91	0.599
3282.61	0.6
3291.3	0.604
3300	0.61
3308.7	0.616
3317.39	0.622
3326.09	0.628
3334.78	0.641
3343.48	0.654
3352.17	0.664
3360.87	0.675
3369.57	0.681
3378.26	0.693
3386.96	0.704
3395.65	0.717
3404.35	0.739
3413.04	0.749
3421.74	0.761
3430.43	0.772
3439.13	0.781
3447.83	0.784
3456.52	0.797
3465.22	0.801
3473.91	0.814
3482.61	0.83
3491.3	0.836
3500	0.846
3508.7	0.85
3517.39	0.853
3526.09	0.853
3534.78	0.855
3543.48	0.856
3552.17	0.862
3560.87	0.865
3569.57	0.863
3578.26	0.865
3586.96	0.868
3595.65	0.874
