Infrared Spectrum: 2,4-DINITROBENZENE-SULFONIC ACID
Formula: C6 H4 N2 O7 S
CAS: 89-02-1
State: SOLID ( MULL;KEL-F FOR 5000-1330 AND MINERAL OIL FOR 1330-625 CM^-^1))
Class: COBLENTZ
Instrument: Not specified, most likely a prism, grating, or hybrid spectrometer.
Sampling: TRANSMISSION
Resolution: 4
Origin: WYANDOTTE CHEMICALS CORP., WYANDOTTE, MICHIGAN, USA
MICROMETERS	TRANSMITTANCE
2.025	0.751
2.06207	0.755
2.09914	0.77
2.13621	0.784
2.17328	0.79
2.21035	0.798
2.24742	0.807
2.28449	0.82
2.32156	0.827
2.35863	0.834
2.3957	0.849
2.43277	0.854
2.46984	0.866
2.50691	0.869
2.54398	0.888
2.58105	0.911
2.61812	0.922
2.65519	0.95
2.69226	0.959
2.72933	0.95
2.7664	0.899
2.80347	0.801
2.84054	0.716
2.87761	0.621
2.91468	0.545
2.95175	0.477
2.98882	0.423
3.02589	0.376
3.06295	0.348
3.10002	0.327
3.13709	0.306
3.17416	0.303
3.21123	0.296
3.2483	0.279
3.28537	0.302
3.32244	0.313
3.35951	0.324
3.39658	0.341
3.43365	0.351
3.47072	0.372
3.50779	0.401
3.54486	0.434
3.58193	0.463
3.619	0.483
3.65607	0.514
3.69314	0.524
3.73021	0.545
3.76728	0.586
3.80435	0.604
3.84142	0.612
3.87849	0.629
3.91556	0.646
3.95263	0.654
3.9897	0.658
4.02677	0.668
4.06384	0.679
4.10091	0.671
4.13798	0.675
4.17505	0.682
4.21212	0.686
4.24919	0.675
4.28626	0.657
4.32333	0.666
4.3604	0.679
4.39747	0.689
4.43454	0.683
4.47161	0.688
4.50868	0.677
4.54575	0.686
4.58282	0.693
4.61989	0.697
4.65696	0.702
4.69403	0.717
4.7311	0.733
4.76817	0.753
4.80524	0.762
4.84231	0.767
4.87938	0.772
4.91645	0.778
4.95352	0.778
4.99059	0.778
5.02766	0.781
5.06473	0.779
5.10179	0.782
5.13886	0.778
5.17593	0.751
5.213	0.761
5.25007	0.748
5.28714	0.75
5.32421	0.72
5.36128	0.702
5.39835	0.683
5.43542	0.666
5.47249	0.649
5.50956	0.624
5.54663	0.598
5.5837	0.579
5.62077	0.556
5.65784	0.533
5.69491	0.52
5.73198	0.493
5.76905	0.471
5.80612	0.448
5.84319	0.429
5.88026	0.421
5.91733	0.418
5.9544	0.427
5.99147	0.451
6.02854	0.46
6.06561	0.489
6.10268	0.527
6.13975	0.555
6.17682	0.474
6.21389	0.427
6.25096	0.517
6.28803	0.527
6.3251	0.448
6.36217	0.316
6.39924	0.111
6.43631	0.102
6.47338	0.151
6.51045	0.186
6.54752	0.274
6.58459	0.334
6.62166	0.382
6.65873	0.404
6.6958	0.429
6.73287	0.426
6.76994	0.437
6.80701	0.44
6.84408	0.451
6.88115	0.446
6.91822	0.448
6.95529	0.458
6.99236	0.46
7.02943	0.457
7.0665	0.446
7.10357	0.438
7.14063	0.435
7.1777	0.41
7.21477	0.4
7.25184	0.341
7.28891	0.209
7.32598	0.116
7.36305	0.136
7.40012	0.189
7.43719	0.21
7.47426	0.257
7.51133	0.493
7.5484	0.5
7.58547	0.493
7.62254	0.474
7.65961	0.497
7.69668	0.506
7.73375	0.491
7.77082	0.472
7.80789	0.429
7.84496	0.37
7.88203	0.331
7.9191	0.272
7.95617	0.213
7.99324	0.145
8.03031	0.117
8.06738	0.128
8.10445	0.131
8.14152	0.13
8.17859	0.142
8.21566	0.175
8.25273	0.207
8.2898	0.251
8.32687	0.274
8.36394	0.3
8.40101	0.311
8.43808	0.314
8.47515	0.32
8.51222	0.319
8.54929	0.324
8.58636	0.322
8.62343	0.317
8.6605	0.308
8.69757	0.297
8.73464	0.279
8.77171	0.232
8.80878	0.234
8.84585	0.241
8.88292	0.213
8.91999	0.21
8.95706	0.249
8.99413	0.282
9.0312	0.306
9.06827	0.317
9.10534	0.324
9.14241	0.333
9.17948	0.317
9.21654	0.313
9.25361	0.28
9.29068	0.258
9.32775	0.237
9.36482	0.249
9.40189	0.262
9.43896	0.275
9.47603	0.28
9.5131	0.288
9.55017	0.296
9.58724	0.285
9.62431	0.24
9.66138	0.212
9.69845	0.213
9.73552	0.2
9.77259	0.203
9.80966	0.223
9.84673	0.255
9.8838	0.272
9.92087	0.291
9.95794	0.305
9.99501	0.313
10.0321	0.319
10.0692	0.33
10.1062	0.325
10.1433	0.331
10.1804	0.331
10.2174	0.33
10.2545	0.334
10.2916	0.339
10.3286	0.342
10.3657	0.35
10.4028	0.358
10.4398	0.361
10.4769	0.365
10.514	0.379
10.5511	0.382
10.5881	0.395
10.6252	0.396
10.6623	0.403
10.6993	0.417
10.7364	0.426
10.7735	0.44
10.8105	0.448
10.8476	0.444
10.8847	0.437
10.9218	0.441
10.9588	0.458
10.9959	0.452
11.033	0.406
11.07	0.31
11.1071	0.344
11.1442	0.437
11.1812	0.486
11.2183	0.511
11.2554	0.531
11.2925	0.547
11.3295	0.565
11.3666	0.579
11.4037	0.595
11.4407	0.6
11.4778	0.603
11.5149	0.61
11.5519	0.629
11.589	0.627
11.6261	0.627
11.6632	0.624
11.7002	0.601
11.7373	0.621
11.7744	0.651
11.8114	0.537
11.8485	0.446
11.8856	0.6
11.9226	0.64
11.9597	0.6
11.9968	0.572
12.0339	0.531
12.0709	0.62
12.108	0.674
12.1451	0.7
12.1821	0.72
12.2192	0.737
12.2563	0.745
12.2933	0.762
12.3304	0.767
12.3675	0.784
12.4045	0.792
12.4416	0.8
12.4787	0.82
12.5158	0.818
12.5528	0.827
12.5899	0.834
12.627	0.849
12.664	0.858
12.7011	0.871
12.7382	0.88
12.7752	0.891
12.8123	0.91
12.8494	0.928
12.8865	0.919
12.9235	0.93
12.9606	0.936
12.9977	0.941
13.0347	0.933
13.0718	0.905
13.1089	0.837
13.1459	0.776
13.183	0.632
13.2201	0.462
13.2572	0.387
13.2942	0.396
13.3313	0.444
13.3684	0.51
13.4054	0.533
13.4425	0.477
13.4796	0.386
13.5166	0.328
13.5537	0.361
13.5908	0.451
13.6279	0.576
13.6649	0.652
13.702	0.702
13.7391	0.739
13.7761	0.753
13.8132	0.741
13.8503	0.68
13.8873	0.648
13.9244	0.686
13.9615	0.742
13.9986	0.778
14.0356	0.796
14.0727	0.812
14.1098	0.824
14.1468	0.838
14.1839	0.846
14.221	0.863
14.258	0.888
14.2951	0.91
14.3322	0.916
14.3692	0.919
14.4063	0.922
14.4434	0.925
14.4805	0.928
14.5175	0.933
14.5546	0.937
14.5917	0.944
14.6287	0.944
14.6658	0.944
14.7029	0.941
14.7399	0.927
14.777	0.924
14.8141	0.913
14.8512	0.896
14.8882	0.874
14.9253	0.852
14.9624	0.827
14.9994	0.803
15.0365	0.77
15.0736	0.728
15.1106	0.696
15.1477	0.677
15.1848	0.691
15.2219	0.728
15.2589	0.773
15.296	0.806
15.3331	0.84
15.3701	0.855
15.4072	0.844
15.4443	0.84
15.4813	0.827
15.5184	0.798
15.5555	0.758
15.5926	0.736
15.6296	0.716
15.6667	0.706
15.7038	0.7
15.7408	0.72
15.7779	0.736
15.815	0.758
15.852	0.772
15.8891	0.784
15.9262	0.801
15.9633	0.8
16.0003	0.806
