Infrared Spectrum: 1,2,4-BENZENETRICARBOXYLIC ACID, TRIOCTYL ESTER
Formula: C33 H54 O6
CAS: 89-04-3
State: SOLUTION (10% CCl4 FOR 2.7-7.5, 10% CS2 FOR 7.5-26 MICRON) VS SOLVENT
Class: COBLENTZ
Instrument: DOW KBr FOREPRISM-GRATING
Instrument parameters: BLAZED AT 3.5, 12.0, 20.0 MICRON AND CHANGED AT 5.0, 7.5, 14.9 MICRON
Sampling: TRANSMISSION
Path length: 0.011 CM, 0.011 CM
Resolution: 2
Origin: DOW CHEMICAL COMPANY
1/CM	TRANSMITTANCE
391.961	0.875
400.487	0.875
409.013	0.875
417.54	0.879
426.066	0.877
434.592	0.881
443.118	0.883
451.644	0.883
460.171	0.877
468.697	0.871
477.223	0.869
485.749	0.861
494.275	0.863
502.802	0.872
511.328	0.875
519.854	0.877
528.38	0.884
536.906	0.893
545.433	0.896
553.959	0.896
562.485	0.896
571.011	0.896
579.537	0.899
588.064	0.901
596.59	0.904
605.116	0.908
613.642	0.92
622.168	0.934
630.695	0.937
639.221	0.934
647.747	0.93
656.273	0.924
664.8	0.905
673.326	0.925
681.852	0.929
690.378	0.912
698.904	0.839
707.431	0.847
715.957	0.855
724.483	0.774
733.009	0.772
741.535	0.78
750.062	0.478
758.588	0.436
767.114	0.634
775.64	0.669
784.166	0.743
792.693	0.751
801.219	0.787
809.745	0.849
818.271	0.857
826.797	0.86
835.324	0.869
843.85	0.873
852.376	0.822
860.902	0.776
869.428	0.872
877.955	0.897
886.481	0.889
895.007	0.844
903.533	0.798
912.059	0.78
920.586	0.749
929.112	0.721
937.638	0.714
946.164	0.666
954.69	0.625
963.217	0.601
971.743	0.629
980.269	0.609
988.795	0.662
997.321	0.65
1005.85	0.722
1014.37	0.798
1022.9	0.791
1031.43	0.8
1039.95	0.808
1048.48	0.788
1057	0.693
1065.53	0.297
1074.06	0.305
1082.58	0.6181
1091.11	0.703
1099.64	0.5969
1108.16	0.187
1116.69	0.088
1125.21	0.15
1133.74	0.272
1142.27	0.339
1150.79	0.334
1159.32	0.501
1167.85	0.673
1176.37	0.807
1184.9	0.815
1193.42	0.795
1201.95	0.733
1210.48	0.645
1219	0.455
1227.53	0.083
1236.06	0.014
1244.58	0.039
1253.11	0.091
1261.63	0.1
1270.16	0.094
1278.69	0.078
1287.21	0.071
1295.74	0.135
1304.26	0.111
1312.79	0.135
1321.32	0.3431
1329.84	0.576
1338.37	0.614
1346.9	0.636
1355.42	0.706
1363.95	0.687
1372.47	0.66
1381	0.435
1389.53	0.394
1398.05	0.613
1406.58	0.687
1415.11	0.612
1423.63	0.8
1432.16	0.816
1440.68	0.767
1449.21	0.63
1457.74	0.414
1466.26	0.235
1474.79	0.322
1483.32	0.667
1491.84	0.733
1500.37	0.729
1508.89	0.855
1517.42	0.888
1525.95	0.893
1534.47	0.893
1543	0.897
1551.52	0.899
1560.05	0.892
1568.58	0.868
1577.1	0.84
1585.63	0.904
1594.16	0.915
1602.68	0.907
1611.21	0.853
1619.73	0.893
1628.26	0.922
1636.79	0.92
1645.31	0.911
1653.84	0.896
1662.37	0.884
1670.89	0.86
1679.42	0.808
1687.94	0.743
1696.47	0.683
1705	0.527
1713.52	0.2269
1722.05	0
1730.57	0
1739.1	0.029
1747.63	0.2241
1756.15	0.5601
1764.68	0.767
1773.21	0.832
1781.73	0.861
1790.26	0.885
1798.78	0.9
1807.31	0.911
1815.84	0.915
1824.36	0.918
1832.89	0.924
1841.42	0.93
1849.94	0.936
1858.47	0.941
1866.99	0.944
1875.52	0.948
1884.05	0.949
1892.57	0.95
1901.1	0.952
1909.63	0.953
1918.15	0.954
1926.68	0.95
1935.2	0.946
1943.73	0.949
1952.26	0.954
1960.78	0.957
1969.31	0.957
1977.83	0.957
1986.36	0.956
1994.89	0.958
2003.41	0.961
2011.94	0.961
2020.47	0.965
2028.99	0.965
2037.52	0.965
2046.04	0.964
2054.57	0.962
2063.1	0.962
2071.62	0.962
2080.15	0.964
2088.68	0.964
2097.2	0.964
2105.73	0.964
2114.25	0.965
2122.78	0.966
2131.31	0.966
2139.83	0.966
2148.36	0.966
2156.89	0.968
2165.41	0.968
2173.94	0.969
2182.46	0.968
2190.99	0.968
2199.52	0.966
2208.04	0.964
2216.57	0.962
2225.09	0.96
2233.62	0.96
2242.15	0.96
2250.67	0.958
2259.2	0.958
2267.73	0.958
2276.25	0.958
2284.78	0.958
2293.3	0.957
2301.83	0.957
2310.36	0.957
2318.88	0.957
2327.41	0.956
2335.94	0.952
2344.46	0.949
2352.99	0.949
2361.51	0.949
2370.04	0.949
2378.57	0.95
2387.09	0.952
2395.62	0.953
2404.15	0.954
2412.67	0.957
2421.2	0.958
2429.72	0.96
2438.25	0.964
2446.78	0.964
2455.3	0.964
2463.83	0.966
2472.35	0.966
2480.88	0.966
2489.41	0.966
2497.93	0.965
2506.46	0.961
2514.99	0.96
2523.51	0.958
2532.04	0.957
2540.56	0.956
2549.09	0.956
2557.62	0.954
2566.14	0.953
2574.67	0.95
2583.2	0.949
2591.72	0.946
2600.25	0.945
2608.77	0.944
2617.3	0.944
2625.83	0.944
2634.35	0.945
2642.88	0.945
2651.4	0.945
2659.93	0.94
2668.46	0.937
2676.98	0.936
2685.51	0.936
2694.04	0.936
2702.56	0.933
2711.09	0.926
2719.61	0.92
2728.14	0.913
2736.67	0.913
2745.19	0.92
2753.72	0.924
2762.25	0.921
2770.77	0.918
2779.3	0.913
2787.82	0.907
2796.35	0.884
2804.88	0.868
2813.4	0.852
2821.93	0.827
2830.46	0.7801
2838.98	0.694
2847.51	0.5353
2856.03	0.268
2864.56	0.1719
2873.09	0.156
2881.61	0.2239
2890.14	0.347
2898.66	0.2811
2907.19	0.217
2915.72	0.1431
2924.24	0.054
2932.77	0.034
2941.3	0.053
2949.82	0.09
2958.35	0.034
2966.87	0.003
2975.4	0.091
2983.93	0.2889
2992.45	0.509
3000.98	0.6768
3009.51	0.822
3018.03	0.871
3026.56	0.896
3035.08	0.912
3043.61	0.922
3052.14	0.932
3060.66	0.937
3069.19	0.937
3077.72	0.942
3086.24	0.954
3094.77	0.961
3103.29	0.966
3111.82	0.968
3120.35	0.972
3128.87	0.974
3137.4	0.976
3145.92	0.977
3154.45	0.98
3162.98	0.98
3171.5	0.98
3180.03	0.981
3188.56	0.984
3197.08	0.988
3205.61	0.989
3214.13	0.992
3222.66	0.993
3231.19	0.997
3239.71	0.998
3248.24	1
3256.77	1.001
3265.29	1.002
3273.82	1.003
3282.34	1.003
3290.87	1.002
3299.4	1.001
3307.92	1
3316.45	0.998
3324.98	0.998
3333.5	0.997
3342.03	0.996
3350.55	0.996
3359.08	0.994
3367.61	0.993
3376.13	0.992
3384.66	0.989
3393.18	0.985
3401.71	0.982
3410.24	0.965
3418.76	0.958
3427.29	0.958
3435.82	0.962
3444.34	0.968
3452.87	0.973
3461.39	0.976
3469.92	0.98
3478.45	0.98
3486.97	0.98
3495.5	0.98
3504.03	0.978
3512.55	0.977
3521.08	0.977
3529.6	0.976
3538.13	0.974
3546.66	0.974
3555.18	0.973
3563.71	0.972
3572.23	0.969
3580.76	0.968
3589.29	0.965
3597.81	0.964
3606.34	0.961
3614.87	0.96
3623.39	0.958
3631.92	0.956
3640.44	0.954
3648.97	0.954
3657.5	0.954
3666.02	0.953
3674.55	0.954
3683.08	0.954
3691.6	0.954
3700.13	0.954
3708.65	0.953
3717.18	0.953
3725.71	0.953
3734.23	0.952
3742.76	0.952
3751.29	0.952
3759.81	0.95
3768.34	0.95
3776.86	0.95
3785.39	0.95
