Infrared Spectrum: 1,2-Benzenedioic acid, butyl decyl ester
Formula: C22 H34 O4
CAS: 89-19-0
State: SOLUTION (10% CCl4 FOR 2.7-7.5, 10% CS2 FOR 7.5-26 MICRON) VS SOLVENT
Class: COBLENTZ
Instrument: DOW KBr FOREPRISM-GRATING
Instrument parameters: BLAZED AT 3.5, 12.0, 20.0 MICRON AND CHANGED AT 5.0, 7.5, 14.9 MICRON
Sampling: TRANSMISSION
Path length: 0.011 CM, 0.011 CM
Resolution: 2
Origin: DOW CHEMICAL COMPANY
1/CM	TRANSMITTANCE
3734	0.841
3725	0.8405
3716	0.8407
3707	0.8424
3698	0.8434
3689	0.8441
3680	0.844
3671	0.8436
3662	0.8438
3653	0.8448
3644	0.8457
3635	0.8467
3626	0.8477
3617	0.8488
3608	0.8499
3599	0.8509
3590	0.8521
3581	0.8532
3572	0.8544
3563	0.8555
3554	0.8567
3545	0.8582
3536	0.8602
3527	0.8621
3518	0.8637
3509	0.8651
3500	0.8665
3491	0.8678
3482	0.8682
3473	0.8685
3464	0.8688
3455	0.8675
3446	0.8611
3437	0.852
3428	0.8466
3419	0.8455
3410	0.8523
3401	0.8616
3392	0.8689
3383	0.8725
3374	0.8745
3365	0.8764
3356	0.8778
3347	0.879
3338	0.8802
3329	0.8814
3320	0.8821
3311	0.8827
3302	0.8833
3293	0.8839
3284	0.8845
3275	0.885
3266	0.8856
3257	0.8858
3248	0.8858
3239	0.8856
3230	0.8853
3221	0.8837
3212	0.8814
3203	0.8774
3194	0.8744
3185	0.8723
3176	0.8704
3167	0.8697
3158	0.869
3149	0.8683
3140	0.868
3131	0.8675
3122	0.8661
3113	0.864
3104	0.8612
3095	0.8575
3086	0.8515
3077	0.8318
3068	0.7678
3059	0.7733
3050	0.7894
3041	0.8061
3032	0.8071
3023	0.7899
3014	0.7824
3005	0.7518
2996	0.5797
2987	0.3832
2978	0.216
2969	0.0772
2960	0.0292
2951	0.0451
2942	0.1096
2933	0.0879
2924	0.0789
2915	0.1275
2906	0.1811
2897	0.2346
2888	0.2882
2879	0.2641
2870	0.1667
2861	0.2434
2852	0.3471
2843	0.444
2834	0.5795
2825	0.7097
2816	0.7439
2807	0.7669
2798	0.7847
2789	0.7984
2780	0.8081
2771	0.8146
2762	0.8185
2753	0.8208
2744	0.8214
2735	0.8192
2726	0.8165
2717	0.8165
2708	0.8217
2699	0.8263
2690	0.8303
2681	0.8327
2672	0.8351
2663	0.8365
2654	0.8378
2645	0.839
2636	0.8401
2627	0.8402
2618	0.8403
2609	0.8399
2600	0.8394
2591	0.839
2582	0.8391
2573	0.8391
2564	0.8407
2555	0.8425
2546	0.8442
2537	0.8455
2528	0.8468
2519	0.8481
2510	0.8494
2501	0.8507
2492	0.852
2483	0.8538
2474	0.8555
2465	0.8558
2456	0.856
2447	0.8553
2438	0.8532
2429	0.8501
2420	0.8471
2411	0.8463
2402	0.8456
2393	0.8453
2384	0.8446
2375	0.8431
2366	0.8415
2357	0.8399
2348	0.8385
2339	0.8378
2330	0.8386
2321	0.8405
2312	0.8421
2303	0.8437
2294	0.8448
2285	0.8455
2276	0.8462
2267	0.8471
2258	0.848
2249	0.8487
2240	0.8494
2231	0.8503
2222	0.8516
2213	0.8528
2204	0.8542
2195	0.8561
2186	0.8597
2177	0.8674
2168	0.8656
2159	0.8614
2150	0.8598
2141	0.8583
2132	0.8571
2123	0.8559
2114	0.8554
2105	0.8549
2096	0.8545
2087	0.8549
2078	0.8554
2069	0.8561
2060	0.857
2051	0.8578
2042	0.8588
2033	0.8592
2024	0.8595
2015	0.8586
2006	0.8577
1997	0.8559
1988	0.8462
1979	0.8456
1970	0.8375
1961	0.8346
1952	0.8384
1943	0.8316
1934	0.824
1925	0.8337
1916	0.8362
1907	0.836
1898	0.8356
1889	0.8349
1880	0.8347
1871	0.8348
1862	0.8315
1853	0.8301
1844	0.8258
1835	0.8122
1826	0.8097
1817	0.8074
1808	0.8051
1799	0.8015
1790	0.7925
1781	0.7719
1772	0.7336
1763	0.6589
1754	0.4681
1745	0.2076
1736	0.0158
1727	0.0004
1718	0.0049
1709	0.3259
1700	0.5074
1691	0.6034
1682	0.6682
1673	0.7347
1664	0.7645
1655	0.7838
1646	0.7965
1637	0.8028
1628	0.8051
1619	0.8051
1610	0.7948
1601	0.6096
1592	0.7541
1583	0.5696
1574	0.7435
1565	0.7846
1556	0.803
1547	0.8103
1538	0.8088
1529	0.8051
1520	0.8011
1511	0.7905
1502	0.7672
1493	0.5914
1484	0.6421
1475	0.4078
1466	0.2727
1457	0.3662
1448	0.5236
1439	0.6335
1430	0.7353
1421	0.7528
1412	0.748
1403	0.6841
1394	0.4804
1385	0.3668
1376	0.5486
1367	0.5551
1358	0.6149
1349	0.6335
1340	0.6054
1331	0.5912
1322	0.4826
1313	0.3553
1304	0.1844
1295	0.0434
1286	0.0003
1277	0.0001
1268	0.0063
1259	0.0297
1250	0.1835
1241	0.3966
1232	0.5542
1223	0.6512
1214	0.7039
1205	0.7204
1196	0.7347
1187	0.7415
1178	0.7346
1169	0.6641
1160	0.5508
1151	0.4012
1142	0.1494
1133	0.078
1124	0.0513
1115	0.2638
1106	0.5334
1097	0.622
1088	0.5083
1079	0.151
1070	0.1066
1061	0.471
1052	0.5981
1043	0.4072
1034	0.5972
1025	0.7311
1016	0.7314
1007	0.7494
998	0.7314
989	0.7124
980	0.7032
971	0.5879
962	0.5551
953	0.603
944	0.6232
935	0.716
926	0.771
917	0.7898
908	0.7928
899	0.7922
890	0.7928
881	0.7841
872	0.7834
863	0.786
854	0.7839
845	0.7588
836	0.7725
827	0.7883
818	0.7947
809	0.7775
800	0.7006
791	0.6711
782	0.6656
773	0.6582
764	0.6283
755	0.4377
746	0.2403
737	0.4071
728	0.6875
719	0.7275
710	0.5048
701	0.6355
692	0.7356
683	0.8243
674	0.8483
665	0.8512
656	0.7915
647	0.7724
638	0.8299
629	0.8394
620	0.8427
611	0.8445
602	0.8416
593	0.8371
584	0.8186
575	0.7819
566	0.7746
557	0.7858
548	0.7974
539	0.7991
530	0.7975
521	0.7997
512	0.7958
503	0.7915
494	0.7943
485	0.7987
476	0.8001
467	0.8008
458	0.8014
449	0.8011
440	0.8005
431	0.7975
422	0.7932
413	0.7932
404	0.7938
