Infrared Spectrum: 3-Methyl-1-phenylpyrazolin-5-one
Formula: C 10 H 10 N 2 O
CAS: 89-25-8
State: gas
Instrument: HP-GC/MS/IRD
Origin: NIST Mass Spectrometry Data Center
1/CM	ABSORBANCE
550	0.0002147
562	0.0009728
574	0.0010792
586	0.0007714
598	0.0006536
610	0.0002318
622	0.0001919
634	7.6e-05
646	0.0002489
658	0.0004313
670	0.0015219
682	0.0023427
694	0.001862
706	0.0008797
718	0.0005187
730	0.0007961
742	0.0024035
754	0.0033003
766	0.0014288
778	0.0010127
790	0.0007182
802	0.0003002
814	0.0001463
826	9.69e-05
838	9.12e-05
850	0.0001425
862	0.0002375
874	0.0004788
886	0.0007942
898	0.0010241
910	0.0006726
922	0.0003154
934	0.0003078
946	0.0005054
958	0.0005168
970	0.0003135
982	0.0004598
994	0.0006479
1006	0.000456
1018	0.0004503
1030	0.0007999
1042	0.0006308
1054	0.0005301
1066	0.0006935
1078	0.000874
1090	0.0017043
1102	0.002052
1114	0.0018316
1126	0.0007714
1138	0.0005738
1150	0.000988
1162	0.0015846
1174	0.0018658
1186	0.0016302
1198	0.0006669
1210	0.0003933
1222	0.0003629
1234	0.0003705
1246	0.000456
1258	0.0005833
1270	0.0008265
1282	0.0015789
1294	0.0043377
1306	0.0091238
1318	0.0062301
1330	0.002394
1342	0.0031502
1354	0.0081814
1366	0.0066196
1378	0.0020881
1390	0.0023256
1402	0.0018354
1414	0.0008474
1426	0.0006384
1438	0.0010051
1450	0.001197
1462	0.0013262
1474	0.0015048
1486	0.0029412
1498	0.0099997
1510	0.0041629
1522	0.0010013
1534	0.0006878
1546	0.0005586
1558	0.0006802
1570	0.0010678
1582	0.0021831
1594	0.0044346
1606	0.003648
1618	0.0018183
1630	0.0009842
1642	0.0005567
1654	0.0004883
1666	0.0004788
1678	0.0005472
1690	0.0007771
1702	0.001292
1714	0.0025479
1726	0.0069597
1738	0.0169822
1750	0.0170734
1762	0.0062149
1774	0.0022971
1786	0.0011419
1798	0.0005548
1810	0.0003135
1822	0.0002489
1834	0.0002242
1846	0.0002052
1858	0.000304
1870	0.000361
1882	0.000342
1894	0.0002204
1906	0.0001691
1918	0.0001577
1930	0.0002698
1942	0.0002584
1954	0.0002527
1966	0.0001216
1978	0.0001026
1990	7.98e-05
2002	7.41e-05
2014	7.6e-05
2026	8.17e-05
2038	7.79e-05
2050	8.17e-05
2062	8.17e-05
2074	0.0001159
2086	6.84e-05
2098	7.41e-05
2110	0.000114
2122	9.12e-05
2134	0.0001064
2146	8.55e-05
2158	8.74e-05
2170	0.0001216
2182	0.0001159
2194	0.0001007
2206	0.0001064
2218	8.93e-05
2230	5.89e-05
2242	7.22e-05
2254	7.79e-05
2266	0.000114
2278	0.0001178
2290	7.41e-05
2302	7.6e-05
2314	9.69e-05
2326	5.7e-05
2338	0.0001178
2350	0.0001064
2362	0.0001292
2374	0.0001216
2386	7.22e-05
2398	6.27e-05
2410	6.84e-05
2422	5.89e-05
2434	8.17e-05
2446	8.17e-05
2458	0.0001007
2470	8.55e-05
2482	8.55e-05
2494	7.6e-05
2506	6.65e-05
2518	7.79e-05
2530	0.0001273
2542	8.17e-05
2554	8.93e-05
2566	0.0001007
2578	0.000114
2590	6.84e-05
2602	3.8e-05
2614	4.56e-05
2626	3.99e-05
2638	5.51e-05
2650	0
2662	9.12e-05
2674	7.6e-05
2686	6.65e-05
2698	5.32e-05
2710	8.74e-05
2722	7.79e-05
2734	5.89e-05
2746	4.18e-05
2758	6.08e-05
2770	8.74e-05
2782	8.74e-05
2794	0.0001311
2806	0.0001235
2818	6.27e-05
2830	0.0001349
2842	0.0001425
2854	0.0002432
2866	0.0004427
2878	0.0003591
2890	0.0002413
2902	0.0002109
2914	0.0003838
2926	0.0011742
2938	0.0012787
2950	0.0006099
2962	0.0006859
2974	0.0004503
2986	0.0003287
2998	0.0003933
3010	0.0003306
3022	0.0004465
3034	0.0007144
3046	0.0011229
3058	0.001463
3070	0.0018031
3082	0.0015618
3094	0.0008132
3106	0.0005168
3118	0.0003173
3130	0.0002166
3142	0.0001558
3154	0.0001007
3166	0.0001482
3178	0.000133
3190	0.0001406
3202	0.000114
3214	8.74e-05
3226	5.89e-05
3238	0.0001007
3250	0.000133
3262	0.0001102
3274	6.08e-05
3286	9.31e-05
3298	0.0001311
3310	0.0001045
3322	7.98e-05
3334	0.0001273
3346	0.0001007
3358	0.0001026
3370	0.0001026
3382	0.0001159
3394	6.65e-05
3406	0.0001349
3418	0.0001197
3430	0.000171
3442	0.0001862
3454	0.000266
3466	0.00038
3478	0.0003515
3490	0.0002888
3502	0.0002185
3514	0.0002109
3526	0.0001501
3538	0.0001406
3550	0.0001273
3562	0.0001292
3574	0.0001862
3586	0.0001387
3598	0.0001957
3610	0.0001463
3622	0.0001463
3634	0.0001995
3646	0.0001976
3658	0.0002204
3670	0.0002204
3682	0.0001995
3694	0.0001387
3706	0.0001064
3718	9.5e-05
3730	9.69e-05
3742	0.0002318
3754	0.0002261
3766	0.0001805
3778	0.0001881
3790	0.0001596
3802	0.0002261
3814	0.0001824
3826	0.0001425
3838	0.0001938
