Infrared Spectrum: 1,2,4,5-Benzenetetracarboxylic dianhydride
Formula: C 10 H 2 O 6
CAS: 89-32-7
State: gas
Instrument: HP-GC/MS/IRD
Origin: NIST Mass Spectrometry Data Center
1/CM	ABSORBANCE
550	0.00022
562	0.000209
574	0.000187
586	0.0001265
598	1.1e-05
610	8.8e-05
622	0.0001265
634	0.00011
646	3.85e-05
658	1.1e-05
670	0.000121
682	0.0001705
694	0.000407
706	0.0034375
718	0.0040865
730	0.000902
742	0.000572
754	0.0021065
766	0.002013
778	0.0003245
790	0.0002365
802	0.0001815
814	0.0002365
826	0.0002695
838	0.000385
850	0.000363
862	0.0005995
874	0.001551
886	0.004279
898	0.0108185
910	0.0233915
922	0.021835
934	0.005049
946	0.0018095
958	0.001936
970	0.0016225
982	0.0007865
994	0.000407
1006	0.0002915
1018	0.0003795
1030	0.0003355
1042	0.0004565
1054	0.00121
1066	0.0014465
1078	0.000418
1090	0.0002585
1102	0.0002805
1114	0.0003575
1126	0.0004345
1138	0.0005005
1150	0.0009405
1162	0.001716
1174	0.0038555
1186	0.0070015
1198	0.0069575
1210	0.0122815
1222	0.02244
1234	0.01265
1246	0.0055605
1258	0.0024475
1270	0.0006435
1282	0.0004895
1294	0.0006765
1306	0.000495
1318	0.0003355
1330	0.000484
1342	0.001078
1354	0.002497
1366	0.0012155
1378	0.0004675
1390	0.00033
1402	0.0004015
1414	0.000319
1426	0.000275
1438	0.000462
1450	0.001001
1462	0.001078
1474	0.000693
1486	0.0004785
1498	0.0003355
1510	0.000187
1522	0.0001925
1534	0.0001925
1546	0.000242
1558	0.000198
1570	0.00011
1582	9.9e-05
1594	0.0001045
1606	0.000132
1618	0.000198
1630	0.000242
1642	0.000275
1654	0.0002805
1666	0.000319
1678	0.000297
1690	0.00033
1702	0.000374
1714	0.0004785
1726	0.000726
1738	0.001265
1750	0.002123
1762	0.0036245
1774	0.005533
1786	0.009207
1798	0.01584
1810	0.0467335
1822	0.043703
1834	0.0086405
1846	0.0051425
1858	0.0081455
1870	0.0173415
1882	0.0074305
1894	0.001947
1906	0.0010175
1918	0.000858
1930	0.0007315
1942	0.0005885
1954	0.0005665
1966	0.000594
1978	0.0004895
1990	0.0004015
2002	0.0004235
2014	0.0004455
2026	0.0005885
2038	0.0005995
2050	0.000418
2062	0.000297
2074	0.0002365
2086	0.00022
2098	0.0002255
2110	0.000198
2122	0.0001815
2134	0.0002145
2146	0.0001595
2158	0.000154
2170	0.000176
2182	0.0001815
2194	0.00022
2206	0.0002255
2218	0.000154
2230	0.000165
2242	0.0001705
2254	0.0001815
2266	0.000209
2278	0.000154
2290	0.000121
2302	9.9e-05
2314	8.8e-05
2326	9.9e-05
2338	9.35e-05
2350	0.0001155
2362	0.0001595
2374	0.0001485
2386	0.0001375
2398	9.35e-05
2410	0.000121
2422	0.0001375
2434	0.000121
2446	0.0001155
2458	6.05e-05
2470	6.05e-05
2482	9.9e-05
2494	9.35e-05
2506	0.0001375
2518	9.9e-05
2530	0.0001155
2542	8.25e-05
2554	8.25e-05
2566	8.25e-05
2578	9.35e-05
2590	6.05e-05
2602	4.95e-05
2614	3.85e-05
2626	8.8e-05
2638	3.3e-05
2650	6.6e-05
2662	2.2e-05
2674	5.5e-05
2686	8.25e-05
2698	3.3e-05
2710	1.1e-05
2722	3.3e-05
2734	6.6e-05
2746	6.6e-05
2758	6.6e-05
2770	0.0001265
2782	0.00011
2794	8.8e-05
2806	6.6e-05
2818	2.75e-05
2830	2.75e-05
2842	3.3e-05
2854	4.4e-05
2866	6.6e-05
2878	2.75e-05
2890	4.95e-05
2902	7.15e-05
2914	4.4e-05
2926	3.85e-05
2938	7.7e-05
2950	7.15e-05
2962	7.15e-05
2974	8.25e-05
2986	0.0001265
2998	7.7e-05
3010	0.0001045
3022	6.6e-05
3034	4.95e-05
3046	0.0001595
3058	0.000132
3070	0.000176
3082	0.0001485
3094	0.0001595
3106	0.00022
3118	8.8e-05
3130	3.85e-05
3142	3.85e-05
3154	9.35e-05
3166	4.95e-05
3178	8.8e-05
3190	4.4e-05
3202	2.2e-05
3214	5.5e-06
3226	6.6e-05
3238	1.65e-05
3250	7.15e-05
3262	2.75e-05
3274	6.6e-05
3286	6.6e-05
3298	5.5e-05
3310	0.0001045
3322	9.35e-05
3334	3.85e-05
3346	5.5e-05
3358	6.05e-05
3370	7.7e-05
3382	0.0001045
3394	7.15e-05
3406	6.05e-05
3418	6.05e-05
3430	2.75e-05
3442	7.15e-05
3454	5.5e-05
3466	8.25e-05
3478	2.2e-05
3490	8.8e-05
3502	1.1e-05
3514	6.05e-05
3526	0.00011
3538	0.000154
3550	0.000176
3562	0.000154
3574	0.000253
3586	0.0002585
3598	0.0003465
3610	0.0004455
3622	0.0005445
3634	0.000506
3646	0.0005115
3658	0.0006765
3670	0.000572
3682	0.0004125
3694	0.0003575
3706	0.000198
3718	0.0002035
3730	0.000176
3742	0.0003135
3754	0.0002145
3766	0.0001595
3778	0.000154
3790	0.0001375
3802	0.0001705
3814	0.0001375
3826	0.0001265
3838	0.0001705
