Infrared Spectrum: Mentyl salicylate
Formula: C 17 H 24 O 3
CAS: 89-46-3
State: gas
Origin: EPA-IR VAPOR PHASE LIBRARY
1/CM	ABSORBANCE
549.8	0.0063
559.445	0.00922
569.09	0.00497
578.734	0.00674
588.379	0.00648
598.024	0.00755
607.669	0.00543
617.313	0.00505
626.958	0.00441
636.603	0.00423
646.248	0.00527
655.893	0.01012
665.537	0.02025
675.182	0.01734
684.827	0.01648
694.472	0.02789
704.116	0.03677
713.761	0.02542
723.406	0.01965
733.051	0.01449
742.695	0.0217
752.34	0.07317
761.985	0.0294
771.63	0.01189
781.275	0.00767
790.919	0.00613
800.564	0.00835
810.209	0.00882
819.854	0.00867
829.498	0.00701
839.143	0.00872
848.788	0.0097
858.433	0.01363
868.078	0.01051
877.722	0.00629
887.367	0.00777
897.012	0.00652
906.657	0.0078
916.301	0.01261
925.946	0.01231
935.591	0.01631
945.236	0.02356
954.88	0.03933
964.525	0.03926
974.17	0.03066
983.815	0.0211
993.46	0.01218
1003.1	0.01346
1012.75	0.0126
1022.39	0.02005
1032.04	0.03725
1041.68	0.02319
1051.33	0.01599
1060.97	0.0223
1070.62	0.04052
1080.26	0.09628
1089.91	0.09524
1099.55	0.03983
1109.2	0.03692
1118.84	0.03686
1128.49	0.06826
1138.13	0.09146
1147.78	0.06355
1157.42	0.19709
1167.07	0.06581
1176.71	0.07217
1186.36	0.05455
1196	0.06117
1205.64	0.13329
1215.29	0.17245
1224.93	0.10227
1234.58	0.10134
1244.22	0.14369
1253.87	0.15301
1263.51	0.08023
1273.16	0.0713
1282.8	0.08907
1292.45	0.15205
1302.09	0.26207
1311.74	0.12881
1321.38	0.10246
1331.03	0.08535
1340.67	0.0732
1350.32	0.06283
1359.96	0.05647
1369.61	0.05667
1379.25	0.05621
1388.9	0.05682
1398.54	0.05054
1408.18	0.04348
1417.83	0.03781
1427.47	0.02806
1437.12	0.02217
1446.76	0.02876
1456.41	0.04832
1466.05	0.06486
1475.7	0.07685
1485.34	0.08714
1494.99	0.03951
1504.63	0.028
1514.28	0.01547
1523.92	0.00985
1533.57	0.00828
1543.21	0.00808
1552.86	0.00955
1562.5	0.01318
1572.15	0.02326
1581.79	0.03946
1591.44	0.03443
1601.08	0.03665
1610.73	0.06434
1620.37	0.04868
1630.01	0.01893
1639.66	0.01666
1649.3	0.02276
1658.95	0.03505
1668.59	0.06453
1678.24	0.14656
1687.88	0.17209
1697.53	0.06938
1707.17	0.0292
1716.82	0.01661
1726.46	0.01574
1736.11	0.02421
1745.75	0.01936
1755.4	0.00938
1765.04	0.00633
1774.69	0.00448
1784.33	0.00351
1793.98	0.00333
1803.62	0.00478
1813.27	0.00407
1822.91	0.00261
1832.55	0.00268
1842.2	0.00191
1851.84	0.00161
1861.49	0.00158
1871.13	0.00156
1880.78	0.00164
1890.42	0.00198
1900.07	0.00206
1909.71	0.00237
1919.36	0.00407
1929	0.00274
1938.65	0.00255
1948.29	0.00312
1957.94	0.00134
1967.58	0.00112
1977.23	0.00113
1986.87	0.0009942
1996.52	0.00104
2006.16	0.00106
2015.81	0.00108
2025.45	0.0009843
2035.1	0.00102
2044.74	0.00107
2054.38	0.00112
2064.03	0.00118
2073.67	0.000984
2083.32	0.0009385
2092.96	0.00101
2102.61	0.00118
2112.25	0.00125
2121.9	0.00113
2131.54	0.00117
2141.19	0.00122
2150.83	0.00127
2160.48	0.00131
2170.12	0.00128
2179.77	0.00115
2189.41	0.00109
2199.06	0.00109
2208.7	0.00116
2218.35	0.00118
2227.99	0.00119
2237.64	0.00136
2247.28	0.0013
2256.92	0.00106
2266.57	0.00123
2276.21	0.00137
2285.86	0.00143
2295.5	0.00134
2305.15	0.00127
2314.79	0.0013
2324.44	0.00132
2334.08	0.00144
2343.73	0.00147
2353.37	0.00147
2363.02	0.00157
2372.66	0.00173
2382.31	0.00198
2391.95	0.00192
2401.6	0.00172
2411.24	0.00179
2420.89	0.002
2430.53	0.00208
2440.18	0.00195
2449.82	0.00183
2459.47	0.00191
2469.11	0.00185
2478.75	0.0018
2488.4	0.00187
2498.04	0.00187
2507.69	0.00183
2517.33	0.00184
2526.98	0.00188
2536.62	0.00219
2546.27	0.00236
2555.91	0.00235
2565.56	0.00231
2575.2	0.00248
2584.85	0.00265
2594.49	0.00285
2604.14	0.00326
2613.78	0.0037
2623.43	0.00391
2633.07	0.00371
2642.72	0.0035
2652.36	0.00354
2662.01	0.00345
2671.65	0.00341
2681.29	0.00367
2690.94	0.00399
2700.58	0.00432
2710.23	0.00427
2719.87	0.00444
2729.52	0.00525
2739.16	0.00579
2748.81	0.00553
2758.45	0.00543
2768.1	0.00558
2777.74	0.0056
2787.39	0.00582
2797.03	0.00644
2806.68	0.00702
2816.32	0.00775
2825.97	0.00886
2835.61	0.0105
2845.26	0.01507
2854.9	0.03448
2864.55	0.04539
2874.19	0.0657
2883.84	0.07333
2893.48	0.05181
2903.12	0.051
2912.77	0.06661
2922.41	0.09947
2932.06	0.14101
2941.7	0.12049
2951.35	0.10579
2960.99	0.15608
2970.64	0.14897
2980.28	0.05427
2989.93	0.02667
2999.57	0.01715
3009.22	0.0137
3018.86	0.01248
3028.51	0.01213
3038.15	0.01187
3047.8	0.01381
3057.44	0.01776
3067.09	0.02145
3076.73	0.0222
3086.38	0.01745
3096.02	0.01605
3105.67	0.01175
3115.31	0.00996
3124.95	0.00947
3134.6	0.0101
3144.24	0.01101
3153.89	0.0124
3163.53	0.01415
3173.18	0.01576
3182.82	0.01753
3192.47	0.02036
3202.11	0.02382
3211.76	0.02795
3221.4	0.03179
3231.05	0.03418
3240.69	0.03437
3250.34	0.03304
3259.98	0.03004
3269.63	0.02746
3279.27	0.02586
3288.92	0.02459
3298.56	0.02312
3308.21	0.02152
3317.85	0.0204
3327.49	0.01894
3337.14	0.01756
3346.78	0.01628
3356.43	0.01521
3366.07	0.01461
3375.72	0.01348
3385.36	0.01206
3395.01	0.01086
3404.65	0.00992
3414.3	0.00933
3423.94	0.00911
3433.59	0.00991
3443.23	0.01296
3452.88	0.01742
3462.52	0.01653
3472.17	0.01253
3481.81	0.01005
3491.46	0.00856
3501.1	0.00726
3510.75	0.00575
3520.39	0.00476
3530.04	0.00393
3539.68	0.00328
3549.32	0.00274
3558.97	0.00246
3568.61	0.00203
3578.26	0.00184
3587.9	0.00144
3597.55	0.00131
3607.19	0.0011
3616.84	0.0009574
3626.48	0.000835
3636.13	0.0007265
3645.77	0.0005083
3655.42	0.0005413
3665.06	0.0005892
3674.71	0.0003478
3684.35	0.000405
3694	0.0002559
3703.64	0.0001547
3713.29	0.0003288
3722.93	0.0003393
3732.58	0.0004569
3742.22	0.0004626
3751.86	0.0002328
3761.51	0.0003108
3771.15	0.0003175
3780.8	0.0002921
3790.44	0.0002668
3800.09	0.0003633
3809.73	0.0003821
3819.38	0.0003271
3829.02	0.0003955
3838.67	0.0004284
3848.31	0.0003739
3857.96	0.0003694
3867.6	0.000362
3877.25	0.0005947
3886.89	0.0004021
3896.54	0.0004728
3906.18	0.0005281
3915.83	0.0006185
3925.47	0.0005829
3935.12	0.0005945
3944.76	0.0005989
3954.41	0.0003761
3964.05	0.0005802
3973.69	0.0005544
3983.34	0.0004402
3992.98	0.0004303
