Infrared Spectrum: 3-Nitro-4-metoxybenzoic acid
Formula: C 8 H 7 N O 5
CAS: 89-41-8
State: gas
Origin: EPA-IR VAPOR PHASE LIBRARY
1/CM	ABSORBANCE
549.8	0.00333
559.445	0.00373
569.09	0.00346
578.734	0.0028
588.379	0.00319
598.024	0.00633
607.669	0.01102
617.313	0.00647
626.958	0.00237
636.603	0.00158
646.248	0.00142
655.893	0.00192
665.537	0.00469
675.182	0.00662
684.827	0.00318
694.472	0.00229
704.116	0.0021
713.761	0.00177
723.406	0.00152
733.051	0.00165
742.695	0.00216
752.34	0.00373
761.985	0.00713
771.63	0.00609
781.275	0.00275
790.919	0.00187
800.564	0.00341
810.209	0.00373
819.854	0.00209
829.498	0.002
839.143	0.00146
848.788	0.0010502
858.433	0.0007905
868.078	0.0006704
877.722	0.0006902
887.367	0.0008893
897.012	0.00144
906.657	0.00223
916.301	0.0022
925.946	0.00142
935.591	0.0008765
945.236	0.0008034
954.88	0.0007518
964.525	0.0009084
974.17	0.0012078
983.815	0.0015
993.46	0.00242
1003.1	0.00373
1012.75	0.00619
1022.39	0.00696
1032.04	0.00573
1041.68	0.00357
1051.33	0.00253
1060.97	0.00281
1070.62	0.00465
1080.26	0.0096
1089.91	0.02081
1099.55	0.02811
1109.2	0.02096
1118.84	0.00853
1128.49	0.00505
1138.13	0.00441
1147.78	0.00509
1157.42	0.00576
1167.07	0.00788
1176.71	0.01536
1186.36	0.01952
1196	0.01169
1205.64	0.00579
1215.29	0.00477
1224.93	0.0042
1234.58	0.00465
1244.22	0.00604
1253.87	0.00901
1263.51	0.0132
1273.16	0.02025
1282.8	0.02488
1292.45	0.01713
1302.09	0.01207
1311.74	0.01059
1321.38	0.01039
1331.03	0.01092
1340.67	0.01392
1350.32	0.02055
1359.96	0.02158
1369.61	0.01385
1379.25	0.00726
1388.9	0.00394
1398.54	0.0032
1408.18	0.00349
1417.83	0.00362
1427.47	0.00281
1437.12	0.00262
1446.76	0.00318
1456.41	0.00311
1466.05	0.00357
1475.7	0.0033
1485.34	0.00371
1494.99	0.00624
1504.63	0.00873
1514.28	0.00792
1523.92	0.00891
1533.57	0.0117
1543.21	0.01749
1552.86	0.02367
1562.5	0.01641
1572.15	0.00893
1581.79	0.00703
1591.44	0.00714
1601.08	0.01044
1610.73	0.01666
1620.37	0.01776
1630.01	0.00966
1639.66	0.00362
1649.3	0.00196
1658.95	0.00144
1668.59	0.0012235
1678.24	0.0011003
1687.88	0.0011414
1697.53	0.00148
1707.17	0.00231
1716.82	0.00295
1726.46	0.0027
1736.11	0.00308
1745.75	0.00736
1755.4	0.03183
1765.04	0.05196
1774.69	0.01747
1784.33	0.00459
1793.98	0.00276
1803.62	0.00248
1813.27	0.00283
1822.91	0.00204
1832.55	0.0011
1842.2	0.0008191
1851.84	0.0005975
1861.49	0.000589
1871.13	0.0005757
1880.78	0.0006949
1890.42	0.0006704
1900.07	0.0008176
1909.71	0.0007929
1919.36	0.0006667
1929	0.0006567
1938.65	0.0005068
1948.29	0.0004712
1957.94	0.0004472
1967.58	0.0004651
1977.23	0.0004817
1986.87	0.0005393
1996.52	0.0005752
2006.16	0.0006144
2015.81	0.0005841
2025.45	0.0006273
2035.1	0.0005773
2044.74	0.0005553
2054.38	0.0005922
2064.03	0.0004927
2073.67	0.0005482
2083.32	0.0005913
2092.96	0.0005243
2102.61	0.0004228
2112.25	0.0004561
2121.9	0.00038387
2131.54	0.0004013
2141.19	0.00039366
2150.83	0.00036212
2160.48	0.0004511
2170.12	0.0004239
2179.77	0.00037945
2189.41	0.00034742
2199.06	0.0003693
2208.7	0.0003745
2218.35	0.0004121
2227.99	0.00036916
2237.64	0.00036527
2247.28	0.00036566
2256.92	0.00035174
2266.57	0.00037119
2276.21	0.00034545
2285.86	0.00035719
2295.5	0.00037773
2305.15	0.00033212
2314.79	0.00037755
2324.44	0.0002799
2334.08	0.00036248
2343.73	0.00038725
2353.37	0.00035751
2363.02	0.00036053
2372.66	0.00032486
2382.31	0.0003834
2391.95	0.0003134
2401.6	0.00037201
2411.24	0.00037382
2420.89	0.0004779
2430.53	0.0004634
2440.18	0.00036654
2449.82	0.0004358
2459.47	0.0003499
2469.11	0.00038247
2478.75	0.00035713
2488.4	0.0003548
2498.04	0.0002471
2507.69	0.00039902
2517.33	0.0004195
2526.98	0.0004289
2536.62	0.00039705
2546.27	0.0004348
2555.91	0.0005611
2565.56	0.0005638
2575.2	0.0006204
2584.85	0.0005641
2594.49	0.0005262
2604.14	0.0004312
2613.78	0.0004094
2623.43	0.00033499
2633.07	0.00031181
2642.72	0.00032446
2652.36	0.0002468
2662.01	0.0002665
2671.65	0.0002767
2681.29	0.0002892
2690.94	0.00034791
2700.58	0.00032668
2710.23	0.00038524
2719.87	0.00038392
2729.52	0.00038952
2739.16	0.0003528
2748.81	0.000463
2758.45	0.0003927
2768.1	0.00037267
2777.74	0.00037285
2787.39	0.00039887
2797.03	0.0004817
2806.68	0.00033789
2816.32	0.0006383
2825.97	0.0006618
2835.61	0.0008546
2845.26	0.00158
2854.9	0.00199
2864.55	0.00143
2874.19	0.0011131
2883.84	0.0009656
2893.48	0.001139
2903.12	0.00157
2912.77	0.00164
2922.41	0.00158
2932.06	0.00175
2941.7	0.00242
2951.35	0.00319
2960.99	0.0029
2970.64	0.00232
2980.28	0.00208
2989.93	0.00148
2999.57	0.0012095
3009.22	0.0012843
3018.86	0.00176
3028.51	0.00182
3038.15	0.0009079
3047.8	0.0006283
3057.44	0.0006241
3067.09	0.0005855
3076.73	0.0010407
3086.38	0.0012315
3096.02	0.0010807
3105.67	0.0006617
3115.31	0.0005088
3124.95	0.000304585
3134.6	0.00035844
3144.24	0.0002809
3153.89	0.00029399
3163.53	0.0002032
3173.18	0.00034645
3182.82	0.00029605
3192.47	0.0002616
3202.11	0.0003139
3211.76	0.0002342
3221.4	0.00015
3231.05	0.000143
3240.69	0.00033088
3250.34	0.00034338
3259.98	0.0002694
3269.63	0.0002872
3279.27	0.000148
3288.92	0.0002271
3298.56	0.000141
3308.21	0.000305558
3317.85	0.000307828
3327.49	0.000301493
3337.14	0.00032931
3346.78	0.00032207
3356.43	0.000178
3366.07	0.0002286
3375.72	0.000162
3385.36	0.000223
3395.01	0.000175
3404.65	0.0002545
3414.3	0.0002398
3423.94	0.000105
3433.59	0.0002264
3443.23	0.0002748
3452.88	0.0004014
3462.52	0.000185
3472.17	0.0002559
3481.81	0.000299454
3491.46	0.0004284
3501.1	0.0005183
3510.75	0.0006537
3520.39	0.0005878
3530.04	0.00033054
3539.68	0.0004912
3549.32	0.0004053
3558.97	0.0006802
3568.61	0.0025
3578.26	0.01411
3587.9	0.01644
3597.55	0.00247
3607.19	0.0005698
3616.84	0.0004736
3626.48	0.000452
3636.13	0.000179
3645.77	0.0004468
3655.42	0.00032204
3665.06	0.00036454
3674.71	0.0003211
3684.35	0.000129
3694	0.00031506
3703.64	0.000244
3713.29	0.0005761
3722.93	0.00036767
3732.58	0.0004535
3742.22	0.0002401
3751.86	0.0002316
3761.51	0.000128
3771.15	0.000151
3780.8	0
3790.44	0.000111
3800.09	0.0002046
3809.73	0.0005576
3819.38	0.000162
3829.02	0.000151
3838.67	0.000141
3848.31	0.00031507
3857.96	0.00039406
3867.6	0.00034674
3877.25	0.0002755
3886.89	0.00032935
3896.54	0.00034671
3906.18	0.0002601
3915.83	0.000245
3925.47	0.0002455
3935.12	0.0002359
3944.76	0.00029839
3954.41	0.000189
3964.05	0.0004095
3973.69	0.00038028
3983.34	0.00037779
3992.98	0.000211
