Infrared Spectrum: Menthyl valerate
Formula: C 15 H 28 O 2
CAS: 89-47-4
State: gas
Origin: EPA-IR VAPOR PHASE LIBRARY
1/CM	ABSORBANCE
549.8	0.0001165
559.445	0.0004504
569.09	0.00020723
578.734	0.0005294
588.379	0.0007309
598.024	0.001147
607.669	0.0010562
617.313	0.0007374
626.958	0.0007757
636.603	0.0008161
646.248	0.000648
655.893	0.0003853
665.537	0.0002894
675.182	0.000306
684.827	0.0002607
694.472	0.0003765
704.116	0.0004709
713.761	0.0006798
723.406	0.001167
733.051	0.0010598
742.695	0.0007603
752.34	0.0008631
761.985	0.0007729
771.63	0.0008511
781.275	0.0006305
790.919	0.0007801
800.564	0.0009875
810.209	0.001167
819.854	0.001507
829.498	0.002247
839.143	0.002847
848.788	0.002167
858.433	0.001427
868.078	0.001347
877.722	0.001717
887.367	0.002357
897.012	0.002667
906.657	0.003627
916.301	0.004927
925.946	0.004777
935.591	0.004017
945.236	0.004587
954.88	0.006587
964.525	0.008477
974.17	0.013297
983.815	0.023987
993.46	0.023877
1003.1	0.018207
1012.75	0.016497
1022.39	0.009087
1032.04	0.008807
1041.68	0.009297
1051.33	0.006007
1060.97	0.006737
1070.62	0.010187
1080.26	0.019017
1089.91	0.027657
1099.55	0.028017
1109.2	0.025707
1118.84	0.023137
1128.49	0.017457
1138.13	0.019257
1147.78	0.025787
1157.42	0.033047
1167.07	0.047047
1176.71	0.058787
1186.36	0.060447
1196	0.042727
1205.64	0.029017
1215.29	0.020917
1224.93	0.019297
1234.58	0.022667
1244.22	0.029357
1253.87	0.031057
1263.51	0.021907
1273.16	0.018047
1282.8	0.023487
1292.45	0.032707
1302.09	0.021727
1311.74	0.012157
1321.38	0.009547
1331.03	0.010537
1340.67	0.013237
1350.32	0.015587
1359.96	0.019707
1369.61	0.022787
1379.25	0.019397
1388.9	0.015167
1398.54	0.008967
1408.18	0.005217
1417.83	0.005327
1427.47	0.006677
1437.12	0.006957
1446.76	0.010327
1456.41	0.016387
1466.05	0.016997
1475.7	0.011227
1485.34	0.005317
1494.99	0.003107
1504.63	0.002287
1514.28	0.001797
1523.92	0.001597
1533.57	0.001337
1543.21	0.001147
1552.86	0.0011069
1562.5	0.0010664
1572.15	0.001024
1581.79	0.0010442
1591.44	0.0010642
1601.08	0.0010849
1610.73	0.0010878
1620.37	0.001257
1630.01	0.001327
1639.66	0.001437
1649.3	0.001457
1658.95	0.001527
1668.59	0.001817
1678.24	0.002337
1687.88	0.003337
1697.53	0.004997
1707.17	0.006737
1716.82	0.009867
1726.46	0.019067
1736.11	0.051777
1745.75	0.078167
1755.4	0.031987
1765.04	0.010517
1774.69	0.006897
1784.33	0.004987
1793.98	0.003497
1803.62	0.002387
1813.27	0.001637
1822.91	0.001327
1832.55	0.001147
1842.2	0.0009913
1851.84	0.0008891
1861.49	0.0007627
1871.13	0.0006726
1880.78	0.0006353
1890.42	0.0006262
1900.07	0.0006295
1909.71	0.0006376
1919.36	0.0006053
1929	0.0005723
1938.65	0.0005301
1948.29	0.0004618
1957.94	0.0005098
1967.58	0.0005199
1977.23	0.000512
1986.87	0.0005002
1996.52	0.0005151
2006.16	0.0005456
2015.81	0.0005597
2025.45	0.0004917
2035.1	0.0004859
2044.74	0.0004508
2054.38	0.000477
2064.03	0.0004887
2073.67	0.000484
2083.32	0.0005803
2092.96	0.0005413
2102.61	0.0005087
2112.25	0.0004908
2121.9	0.0004672
2131.54	0.0004112
2141.19	0.0004606
2150.83	0.0003431
2160.48	0.0004433
2170.12	0.0003547
2179.77	0.0004467
2189.41	0.0004182
2199.06	0.0004288
2208.7	0.0004631
2218.35	0.0004294
2227.99	0.0004539
2237.64	0.0003817
2247.28	0.0004505
2256.92	0.0004875
2266.57	0.0005581
2276.21	0.0005406
2285.86	0.0005684
2295.5	0.000626
2305.15	0.0004653
2314.79	0.000448
2324.44	0.0004552
2334.08	0.0005477
2343.73	0.000552
2353.37	0.0005167
2363.02	0.0004972
2372.66	0.0005496
2382.31	0.0005324
2391.95	0.0004626
2401.6	0.0005028
2411.24	0.0005363
2420.89	0.0005685
2430.53	0.0004692
2440.18	0.0004846
2449.82	0.0004885
2459.47	0.0005198
2469.11	0.0005184
2478.75	0.0004257
2488.4	0.0004447
2498.04	0.0003655
2507.69	0.0004701
2517.33	0.0004244
2526.98	0.0004269
2536.62	0.0004225
2546.27	0.0004874
2555.91	0.000494
2565.56	0.0005556
2575.2	0.0006407
2584.85	0.0006846
2594.49	0.0008515
2604.14	0.0009907
2613.78	0.0010743
2623.43	0.0011303
2633.07	0.001121
2642.72	0.0011094
2652.36	0.001177
2662.01	0.001207
2671.65	0.001177
2681.29	0.001177
2690.94	0.001197
2700.58	0.001267
2710.23	0.001387
2719.87	0.001777
2729.52	0.002237
2739.16	0.002467
2748.81	0.002117
2758.45	0.001837
2768.1	0.001897
2777.74	0.001967
2787.39	0.002147
2797.03	0.002697
2806.68	0.003127
2816.32	0.003717
2825.97	0.004517
2835.61	0.005717
2845.26	0.009167
2854.9	0.020397
2864.55	0.026207
2874.19	0.042257
2883.84	0.046877
2893.48	0.033957
2903.12	0.033837
2912.77	0.043167
2922.41	0.063287
2932.06	0.082597
2941.7	0.078827
2951.35	0.074527
2960.99	0.112287
2970.64	0.098487
2980.28	0.043607
2989.93	0.019807
2999.57	0.009837
3009.22	0.006237
3018.86	0.004507
3028.51	0.003307
3038.15	0.002747
3047.8	0.002257
3057.44	0.002077
3067.09	0.001957
3076.73	0.002027
3086.38	0.001827
3096.02	0.001657
3105.67	0.001487
3115.31	0.001547
3124.95	0.001507
3134.6	0.001277
3144.24	0.001497
3153.89	0.001327
3163.53	0.001377
3173.18	0.001477
3182.82	0.001327
3192.47	0.001227
3202.11	0.0010967
3211.76	0.0008513
3221.4	0.0005829
3231.05	0.0004863
3240.69	0.0004074
3250.34	0.0004519
3259.98	0.0003716
3269.63	0.0003464
3279.27	0.0003044
3288.92	0.00022706
3298.56	0.0002664
3308.21	0.000371
3317.85	0.0003534
3327.49	0.0003115
3337.14	0.0002683
3346.78	0.0004204
3356.43	0.0003769
3366.07	0.0002973
3375.72	0.0003469
3385.36	0.0003979
3395.01	0.0004506
3404.65	0.0004194
3414.3	0.0003262
3423.94	0.0003843
3433.59	0.0004925
3443.23	0.0003608
3452.88	0.0004876
3462.52	0.0007346
3472.17	0.0008011
3481.81	0.0006125
3491.46	0.0004557
3501.1	0.0003902
3510.75	0.00021292
3520.39	0.00017423
3530.04	0.00021276
3539.68	0.0002511
3549.32	0.00018624
3558.97	7.87e-05
3568.61	0.00020764
3578.26	8.8e-05
3587.9	0.0001033
3597.55	0.000122
3607.19	0.00023034
3616.84	0.0001247
3626.48	3.4e-05
3636.13	0.00015752
3645.77	0.00017917
3655.42	0.00018106
3665.06	0.0002416
3674.71	0.00016332
3684.35	0.00022961
3694	0.0003742
3703.64	0.000144252
3713.29	0.000140454
3722.93	0.00016479
3732.58	0.0001213
3742.22	0.0002467
3751.86	0.00013421
3761.51	0.0003629
3771.15	0.00020231
3780.8	0.0001286
3790.44	0.0003239
3800.09	0.0004555
3809.73	0.0002686
3819.38	0.0004465
3829.02	0.0004736
3838.67	0.00017323
3848.31	0.0003672
3857.96	0.0005127
3867.6	0.0002507
3877.25	0.00021413
3886.89	0.00019853
3896.54	0.0003708
3906.18	0.0005619
3915.83	0.0002726
3925.47	0.0003224
3935.12	0.0003696
3944.76	0.000271
3954.41	0.0004657
3964.05	0.0002448
3973.69	0.0003162
3983.34	0.0004544
3992.98	0.0004114
