Infrared Spectrum: 4-NITRO-PHTHALIMIDE
Formula: C8 H4 N2 O4
CAS: 89-40-7
State: SOLID (0.5% KBr PELLET)
Class: COBLENTZ
Instrument: Not specified, most likely a prism, grating, or hybrid spectrometer.
Sampling: TRANSMISSION
Path length: 0.0355 CM
Resolution: 4
Origin: ANDERSON PHYSICAL LABORATORY
1/CM	TRANSMITTANCE
670.732	0.785
679.175	0.758
687.618	0.743
696.06	0.781
704.503	0.781
712.946	0.3984
721.389	0.3848
729.832	0.752
738.275	0.866
746.717	0.916
755.16	0.857
763.603	0.8109
772.046	0.956
780.489	0.974
788.931	0.971
797.374	0.8861
805.817	0.752
814.26	0.95
822.703	0.952
831.145	0.949
839.588	0.952
848.031	0.952
856.474	0.946
864.917	0.7492
873.36	0.9498
881.802	0.961
890.245	0.953
898.688	0.92
907.131	0.904
915.574	0.928
924.016	0.932
932.459	0.914
940.902	0.8
949.345	0.937
957.788	0.938
966.23	0.934
974.673	0.923
983.116	0.907
991.559	0.905
1000	0.898
1008.44	0.877
1016.89	0.859
1025.33	0.811
1033.77	0.5871
1042.22	0.656
1050.66	0.826
1059.1	0.77
1067.54	0.629
1075.99	0.469
1084.43	0.413
1092.87	0.6221
1101.32	0.89
1109.76	0.7731
1118.2	0.6409
1126.64	0.913
1135.09	0.929
1143.53	0.932
1151.97	0.925
1160.42	0.847
1168.86	0.835
1177.3	0.736
1185.74	0.875
1194.19	0.898
1202.63	0.895
1211.07	0.886
1219.51	0.875
1227.96	0.859
1236.4	0.848
1244.84	0.83
1253.29	0.817
1261.73	0.757
1270.17	0.766
1278.61	0.721
1287.06	0.653
1295.5	0.581
1303.94	0.454
1312.39	0.338
1320.83	0.431
1329.27	0.572
1337.71	0.58
1346.16	0.313
1354.6	0.209
1363.04	0.4148
1371.49	0.667
1379.93	0.713
1388.37	0.722
1396.81	0.806
1405.26	0.865
1413.7	0.887
1422.14	0.877
1430.59	0.902
1439.03	0.863
1447.47	0.871
1455.91	0.869
1464.36	0.857
1472.8	0.862
1481.24	0.865
1489.68	0.866
1498.13	0.853
1506.57	0.83
1515.01	0.796
1523.46	0.748
1531.9	0.68
1540.34	0.599
1548.78	0.445
1557.23	0.35
1565.67	0.664
1574.11	0.86
1582.56	0.889
1591	0.857
1599.44	0.823
1607.88	0.788
1616.33	0.722
1624.77	0.584
1633.21	0.677
1641.66	0.733
1650.1	0.694
1658.54	0.646
1666.98	0.578
1675.43	0.505
1683.87	0.415
1692.31	0.337
1700.76	0.259
1709.2	0.179
1717.64	0.184
1726.08	0.199
1734.53	0.203
1742.97	0.208
1751.41	0.3591
1759.85	0.544
1768.3	0.664
1776.74	0.656
1785.18	0.601
1793.63	0.536
1802.07	0.752
1810.51	0.856
1818.95	0.883
1827.4	0.928
1835.84	0.943
1844.28	0.943
1852.73	0.955
1861.17	0.952
1869.61	0.94
1878.05	0.955
1886.5	0.958
1894.94	0.955
1903.38	0.956
1911.83	0.949
1920.27	0.941
1928.71	0.949
1937.15	0.95
1945.6	0.95
1954.04	0.949
1962.48	0.931
1970.93	0.928
1979.37	0.94
1987.81	0.94
1996.25	0.943
2004.7	0.943
2013.14	0.943
2021.58	0.941
2030.02	0.941
2038.47	0.941
2046.91	0.9405
2055.35	0.9384
2063.8	0.937
2072.24	0.9364
2080.68	0.9344
2089.12	0.934
2097.57	0.934
2106.01	0.934
2114.45	0.934
2122.9	0.9323
2131.34	0.9319
2139.78	0.931
2148.22	0.9284
2156.67	0.928
2165.11	0.926
2173.55	0.926
2182	0.925
2190.44	0.925
2198.88	0.9228
2207.32	0.9187
2215.77	0.917
2224.21	0.917
2232.65	0.9155
2241.1	0.914
2249.54	0.913
2257.98	0.908
2266.42	0.907
2274.87	0.907
2283.31	0.907
2291.75	0.907
2300.19	0.905
2308.64	0.9029
2317.08	0.899
2325.52	0.8948
2333.97	0.8884
2342.41	0.8834
2350.85	0.8783
2359.29	0.8768
2367.74	0.8746
2376.18	0.8746
2384.62	0.8779
2393.07	0.881
2401.51	0.883
2409.95	0.883
2418.39	0.881
2426.84	0.881
2435.28	0.8806
2443.72	0.88
2452.17	0.88
2460.61	0.8796
2469.05	0.878
2477.49	0.8794
2485.94	0.88
2494.38	0.878
2502.82	0.878
2511.27	0.8757
2519.71	0.875
2528.15	0.8717
2536.59	0.869
2545.04	0.868
2553.48	0.868
2561.92	0.868
2570.36	0.869
2578.81	0.868
2587.25	0.868
2595.69	0.8657
2604.14	0.8624
2612.58	0.8603
2621.02	0.857
2629.46	0.856
2637.91	0.856
2646.35	0.8542
2654.79	0.853
2663.24	0.853
2671.68	0.853
2680.12	0.851
2688.56	0.8508
2697.01	0.8491
2705.45	0.8473
2713.89	0.847
2722.34	0.845
2730.78	0.8445
2739.22	0.8418
2747.66	0.839
2756.11	0.839
2764.55	0.838
2772.99	0.838
2781.44	0.835
2789.88	0.8327
2798.32	0.8309
2806.76	0.8292
2815.21	0.829
2823.65	0.827
2832.09	0.8264
2840.54	0.8232
2848.98	0.8197
2857.42	0.8133
2865.86	0.8098
2874.31	0.8063
2882.75	0.8059
2891.19	0.8042
2899.63	0.803
2908.08	0.8021
2916.52	0.8017
2924.96	0.8
2933.41	0.798
2941.85	0.7961
2950.29	0.7938
2958.73	0.791
2967.18	0.7879
2975.62	0.7811
2984.06	0.778
2992.51	0.776
3000.95	0.7735
3009.39	0.767
3017.83	0.7539
3026.28	0.7454
3034.72	0.724
3043.16	0.7037
3051.61	0.6835
3060.05	0.6753
3068.49	0.666
3076.93	0.6639
3085.38	0.662
3093.82	0.6646
3102.26	0.6785
3110.71	0.6731
3119.15	0.6565
3127.59	0.6494
3136.03	0.6676
3144.48	0.6983
3152.92	0.7
3161.36	0.6987
3169.8	0.6941
3178.25	0.6918
3186.69	0.6847
3195.13	0.6752
3203.58	0.6672
3212.02	0.6606
3220.46	0.6557
3228.9	0.6499
3237.35	0.6371
3245.79	0.6238
3254.23	0.6135
3262.68	0.6047
3271.12	0.596
3279.56	0.5884
3288	0.5748
3296.45	0.5559
3304.89	0.5327
3313.33	0.5161
3321.78	0.4952
3330.22	0.461
3338.66	0.4487
3347.1	0.446
3355.55	0.4755
3363.99	0.5249
3372.43	0.5793
3380.88	0.6237
3389.32	0.6682
3397.76	0.693
3406.2	0.7014
3414.65	0.704
3423.09	0.704
3431.53	0.703
3439.97	0.7008
3448.42	0.6976
3456.86	0.695
3465.3	0.694
3473.75	0.692
3482.19	0.691
3490.63	0.6917
3499.07	0.694
3507.52	0.6973
3515.96	0.7005
3524.4	0.7055
3532.85	0.709
3541.29	0.7123
3549.73	0.7141
3558.17	0.716
3566.62	0.7212
3575.06	0.7257
3583.5	0.728
3591.95	0.7327
3600.39	0.7343
3608.83	0.7407
3617.27	0.7456
3625.72	0.7489
3634.16	0.751
3642.6	0.7514
3651.05	0.7566
3659.49	0.7607
3667.93	0.7643
3676.37	0.767
3684.82	0.7684
3693.26	0.769
3701.7	0.77
3710.14	0.772
3718.59	0.772
3727.03	0.772
3735.47	0.77
3743.92	0.769
3752.36	0.767
3760.8	0.767
3769.24	0.767
3777.69	0.767
3786.13	0.767
3794.57	0.7659
3803.02	0.7624
3811.46	0.7589
3819.9	0.758
3828.34	0.758
3836.79	0.7577
3845.23	0.7558
3853.67	0.755
3862.12	0.7538
3870.56	0.751
3879	0.751
3887.44	0.749
3895.89	0.749
3904.33	0.749
3912.77	0.751
3921.22	0.751
3929.66	0.751
3938.1	0.751
3946.54	0.751
3954.99	0.751
3963.43	0.751
3971.87	0.749
3980.31	0.749
3988.76	0.748
