Infrared Spectrum: 2,5-Dimethylnitrobenzene
Formula: C 8 H 9 N O 2
CAS: 89-58-7
State: gas
Origin: EPA-IR VAPOR PHASE LIBRARY
1/CM	ABSORBANCE
549.8	0.002355
559.445	0.003355
569.09	0.004735
578.734	0.005475
588.379	0.004745
598.024	0.002675
607.669	0.001535
617.313	0.0009638
626.958	0.0005499
636.603	0.0003503
646.248	0.0003175
655.893	0.001545
665.537	0.004695
675.182	0.018185
684.827	0.020575
694.472	0.006855
704.116	0.003005
713.761	0.003575
723.406	0.006115
733.051	0.011145
742.695	0.015135
752.34	0.015095
761.985	0.015725
771.63	0.015985
781.275	0.014295
790.919	0.021035
800.564	0.087335
810.209	0.140865
819.854	0.080295
829.498	0.023025
839.143	0.006965
848.788	0.004345
858.433	0.004135
868.078	0.007925
877.722	0.014445
887.367	0.015475
897.012	0.010565
906.657	0.011955
916.301	0.012585
925.946	0.007125
935.591	0.003725
945.236	0.003235
954.88	0.003695
964.525	0.003405
974.17	0.003105
983.815	0.003155
993.46	0.003665
1003.1	0.003865
1012.75	0.003745
1022.39	0.004075
1032.04	0.005715
1041.68	0.007955
1051.33	0.008285
1060.97	0.008265
1070.62	0.008845
1080.26	0.009185
1089.91	0.006165
1099.55	0.004445
1109.2	0.004085
1118.84	0.004295
1128.49	0.004415
1138.13	0.007835
1147.78	0.018825
1157.42	0.020005
1167.07	0.011105
1176.71	0.006585
1186.36	0.006335
1196	0.007575
1205.64	0.009765
1215.29	0.009185
1224.93	0.007065
1234.58	0.006855
1244.22	0.007855
1253.87	0.010055
1263.51	0.014925
1273.16	0.022285
1282.8	0.028915
1292.45	0.027845
1302.09	0.024665
1311.74	0.029055
1321.38	0.040335
1331.03	0.062835
1340.67	0.114585
1350.32	0.193995
1359.96	0.216855
1369.61	0.145165
1379.25	0.086155
1388.9	0.062165
1398.54	0.045345
1408.18	0.031105
1417.83	0.024595
1427.47	0.023845
1437.12	0.028285
1446.76	0.035295
1456.41	0.040345
1466.05	0.040735
1475.7	0.039835
1485.34	0.050495
1494.99	0.076585
1504.63	0.107805
1514.28	0.145285
1523.92	0.228745
1533.57	0.363255
1543.21	0.400975
1552.86	0.291995
1562.5	0.196055
1572.15	0.142765
1581.79	0.086715
1591.44	0.044305
1601.08	0.024575
1610.73	0.018005
1620.37	0.016495
1630.01	0.013615
1639.66	0.008995
1649.3	0.006335
1658.95	0.005325
1668.59	0.004665
1678.24	0.003965
1687.88	0.003575
1697.53	0.003145
1707.17	0.002645
1716.82	0.002435
1726.46	0.002865
1736.11	0.003595
1745.75	0.005235
1755.4	0.007715
1765.04	0.007935
1774.69	0.004985
1784.33	0.002625
1793.98	0.001835
1803.62	0.001685
1813.27	0.001635
1822.91	0.002285
1832.55	0.003195
1842.2	0.003245
1851.84	0.002615
1861.49	0.002045
1871.13	0.001715
1880.78	0.001685
1890.42	0.002455
1900.07	0.004225
1909.71	0.004455
1919.36	0.002795
1929	0.001705
1938.65	0.001405
1948.29	0.001255
1957.94	0.0011492
1967.58	0.0011017
1977.23	0.0009967
1986.87	0.0011602
1996.52	0.0010824
2006.16	0.0009306
2015.81	0.0007671
2025.45	0.0006882
2035.1	0.0005672
2044.74	0.000537
2054.38	0.0006394
2064.03	0.000689
2073.67	0.0007899
2083.32	0.0006062
2092.96	0.0006363
2102.61	0.0005605
2112.25	0.0006132
2121.9	0.0006442
2131.54	0.000685
2141.19	0.0006663
2150.83	0.0007933
2160.48	0.0007706
2170.12	0.0006567
2179.77	0.0005222
2189.41	0.0006367
2199.06	0.0007684
2208.7	0.0006152
2218.35	0.0005789
2227.99	0.0004806
2237.64	0.000464
2247.28	0.0005189
2256.92	0.0006016
2266.57	0.0007738
2276.21	0.0008689
2285.86	0.0010585
2295.5	0.001275
2305.15	0.001515
2314.79	0.001435
2324.44	0.001335
2334.08	0.001495
2343.73	0.001765
2353.37	0.001755
2363.02	0.001675
2372.66	0.001585
2382.31	0.001425
2391.95	0.001395
2401.6	0.001645
2411.24	0.001825
2420.89	0.002165
2430.53	0.002215
2440.18	0.002155
2449.82	0.001975
2459.47	0.001655
2469.11	0.001525
2478.75	0.001435
2488.4	0.001195
2498.04	0.0009721
2507.69	0.0009435
2517.33	0.0008768
2526.98	0.0008326
2536.62	0.0008258
2546.27	0.0010471
2555.91	0.0011885
2565.56	0.001425
2575.2	0.001585
2584.85	0.001765
2594.49	0.002075
2604.14	0.002205
2613.78	0.002105
2623.43	0.001925
2633.07	0.001945
2642.72	0.001925
2652.36	0.001825
2662.01	0.001825
2671.65	0.001775
2681.29	0.001895
2690.94	0.001985
2700.58	0.002275
2710.23	0.002185
2719.87	0.002165
2729.52	0.002305
2739.16	0.003195
2748.81	0.004325
2758.45	0.004195
2768.1	0.003455
2777.74	0.002755
2787.39	0.002795
2797.03	0.003255
2806.68	0.003755
2816.32	0.004765
2825.97	0.006065
2835.61	0.008105
2845.26	0.010735
2854.9	0.015005
2864.55	0.022525
2874.19	0.030635
2883.84	0.033495
2893.48	0.031295
2903.12	0.028845
2912.77	0.029765
2922.41	0.039895
2932.06	0.062595
2941.7	0.072115
2951.35	0.053965
2960.99	0.033825
2970.64	0.028635
2980.28	0.032855
2989.93	0.036335
2999.57	0.034015
3009.22	0.030655
3018.86	0.030545
3028.51	0.035045
3038.15	0.035185
3047.8	0.031405
3057.44	0.034625
3067.09	0.033395
3076.73	0.022025
3086.38	0.012435
3096.02	0.007475
3105.67	0.005345
3115.31	0.004295
3124.95	0.003515
3134.6	0.002715
3144.24	0.002145
3153.89	0.001695
3163.53	0.0011927
3173.18	0.001235
3182.82	0.001235
3192.47	0.0011488
3202.11	0.0009154
3211.76	0.0008301
3221.4	0.0006615
3231.05	0.0006404
3240.69	0.0006363
3250.34	0.000606
3259.98	0.0006893
3269.63	0.000576
3279.27	0.0004427
3288.92	0.0003525
3298.56	0.0002979
3308.21	0.0003305
3317.85	0.0003841
3327.49	0.0003579
3337.14	0.0004488
3346.78	0.0004947
3356.43	0.0002485
3366.07	0.00018513
3375.72	0.00021874
3385.36	0.0003054
3395.01	0.0003957
3404.65	0.0005417
3414.3	0.0003335
3423.94	0.0006142
3433.59	0.0004208
3443.23	0.0004014
3452.88	0.0003047
3462.52	0.0003348
3472.17	9.54e-05
3481.81	0.0004127
3491.46	9.7e-05
3501.1	0.0002996
3510.75	0.000198227
3520.39	0.0003027
3530.04	0.0001753
3539.68	0.0001329
3549.32	8e-05
3558.97	0.00023593
3568.61	0.0003246
3578.26	0.0007807
3587.9	0.0006897
3597.55	0.00025601
3607.19	0.00022168
3616.84	0.00024947
3626.48	0.0001779
3636.13	7.5e-05
3645.77	0.00022078
3655.42	0.0001937
3665.06	0.0003141
3674.71	0.00028275
3684.35	0.00023181
3694	0.000391
3703.64	0.0004149
3713.29	0.0008498
3722.93	0.0006353
3732.58	0.0004596
3742.22	0.0003696
3751.86	0.0003625
3761.51	0.00029302
3771.15	0.0003531
3780.8	0.00023892
3790.44	0.0004028
3800.09	0.0001832
3809.73	0.00028433
3819.38	0.000433
3829.02	0.0003444
3838.67	0.0005855
3848.31	0.0005253
3857.96	0.0004163
3867.6	0.0005138
3877.25	0.0004698
3886.89	0.0004866
3896.54	0.0004751
3906.18	0.0003521
3915.83	0.0006279
3925.47	0.0006792
3935.12	0.0007848
3944.76	0.0007328
3954.41	0.0008537
3964.05	0.0008206
3973.69	0.0008721
3983.34	0.0008886
3992.98	0.0008819
