Infrared Spectrum: Aniline, 4-chloro-2-nitro-
Formula: C6 H5 Cl N2 O2
CAS: 89-63-4
State: SOLID (KBr DISC)
Class: COBLENTZ III
Instrument: BECKMAN IR-4 (HYBRID PRISM-GRATING)
Sampling: TRANSMISSION
Resolution: 2
Origin: UNIVERSITY OF FLORIDA
1/CM	TRANSMITTANCE
667.776	0.6298
676.662	0.6348
685.547	0.6165
694.433	0.6329
703.319	0.6417
712.205	0.6218
721.09	0.4834
729.976	0.6613
738.862	0.7084
747.748	0.6996
756.633	0.6727
765.519	0.611
774.405	0.6998
783.29	0.6957
792.176	0.6764
801.062	0.6554
809.948	0.5257
818.833	0.3463
827.719	0.6546
836.605	0.6763
845.491	0.6768
854.376	0.6716
863.262	0.6484
872.148	0.5572
881.033	0.5872
889.919	0.5958
898.805	0.5448
907.691	0.6443
916.576	0.6384
925.462	0.6349
934.348	0.635
943.234	0.6328
952.119	0.6275
961.005	0.6203
969.891	0.6216
978.776	0.6219
987.662	0.6123
996.548	0.6058
1005.43	0.5973
1014.32	0.5891
1023.21	0.5813
1032.09	0.5742
1040.98	0.5712
1049.86	0.5704
1058.75	0.569
1067.63	0.5647
1076.52	0.5449
1085.41	0.5442
1094.29	0.5204
1103.18	0.4956
1112.06	0.4193
1120.95	0.4128
1129.83	0.4702
1138.72	0.5636
1147.61	0.6116
1156.49	0.616
1165.38	0.5743
1174.26	0.6396
1183.15	0.6075
1192.03	0.568
1200.92	0.5396
1209.81	0.5133
1218.69	0.4747
1227.58	0.4177
1236.46	0.3487
1245.35	0.2409
1254.23	0.2312
1263.12	0.3188
1272.01	0.3679
1280.89	0.4888
1289.78	0.5771
1298.66	0.5588
1307.55	0.5892
1316.43	0.6513
1325.32	0.656
1334.21	0.6018
1343.09	0.3737
1351.98	0.6062
1360.86	0.5881
1369.75	0.4798
1378.63	0.617
1387.52	0.6856
1396.41	0.6475
1405.29	0.4668
1414.18	0.4925
1423.06	0.6493
1431.95	0.6838
1440.83	0.6598
1449.72	0.6016
1458.61	0.5658
1467.49	0.5826
1476.38	0.5993
1485.26	0.5626
1494.15	0.478
1503.03	0.3352
1511.92	0.3278
1520.81	0.4518
1529.69	0.5863
1538.58	0.6368
1547.46	0.6326
1556.35	0.6053
1565.23	0.4758
1574.12	0.5303
1583.01	0.5917
1591.89	0.5607
1600.78	0.5379
1609.66	0.5666
1618.55	0.5986
1627.43	0.4839
1636.32	0.413
1645.21	0.371
1654.09	0.4311
1662.98	0.5864
1671.86	0.7068
1680.75	0.7446
1689.63	0.7677
1698.52	0.788
1707.41	0.7971
1716.29	0.8009
1725.18	0.8023
1734.06	0.8026
1742.95	0.7999
1751.83	0.7949
1760.72	0.7907
1769.61	0.7874
1778.49	0.7854
1787.38	0.7844
1796.26	0.7817
1805.15	0.7796
1814.03	0.7785
1822.92	0.7784
1831.81	0.7763
1840.69	0.7729
1849.58	0.7694
1858.46	0.7673
1867.35	0.7666
1876.24	0.7664
1885.12	0.7657
1894.01	0.7599
1902.89	0.754
1911.78	0.7466
1920.66	0.744
1929.55	0.7457
1938.44	0.7474
1947.32	0.749
1956.21	0.7488
1965.09	0.7464
1973.98	0.7426
1982.86	0.741
1991.75	0.7395
2000.64	0.7382
2009.52	0.7364
2018.41	0.7352
2027.29	0.7343
2036.18	0.7335
2045.06	0.7328
2053.95	0.7323
2062.84	0.732
2071.72	0.7313
2080.61	0.7293
2089.49	0.7271
2098.38	0.7245
2107.26	0.7218
2116.15	0.7198
2125.04	0.7179
2133.92	0.7167
2142.81	0.7155
2151.69	0.7143
2160.58	0.7132
2169.46	0.7122
2178.35	0.7113
2187.24	0.7103
2196.12	0.7096
2205.01	0.709
2213.89	0.7083
2222.78	0.7077
2231.66	0.7069
2240.55	0.7061
2249.44	0.7053
2258.32	0.7045
2267.21	0.7037
2276.09	0.7029
2284.98	0.702
2293.86	0.7012
2302.75	0.7002
2311.64	0.6992
2320.52	0.6982
2329.41	0.6972
2338.29	0.6962
2347.18	0.695
2356.06	0.6938
2364.95	0.6926
2373.84	0.6916
2382.72	0.6908
2391.61	0.69
2400.49	0.6892
2409.38	0.6885
2418.26	0.6877
2427.15	0.6865
2436.04	0.6843
2444.92	0.6803
2453.81	0.6786
2462.69	0.6774
2471.58	0.6764
2480.46	0.6751
2489.35	0.6738
2498.24	0.6725
2507.12	0.6714
2516.01	0.6702
2524.89	0.6691
2533.78	0.668
2542.66	0.6671
2551.55	0.6662
2560.44	0.6653
2569.32	0.6645
2578.21	0.6637
2587.09	0.6629
2595.98	0.662
2604.86	0.6596
2613.75	0.6568
2622.64	0.6552
2631.52	0.6542
2640.41	0.6533
2649.29	0.6525
2658.18	0.6518
2667.06	0.6513
2675.95	0.6507
2684.84	0.6501
2693.72	0.6497
2702.61	0.6493
2711.49	0.6488
2720.38	0.6484
2729.26	0.648
2738.15	0.6476
2747.04	0.647
2755.92	0.6456
2764.81	0.6442
2773.69	0.6428
2782.58	0.6413
2791.47	0.6397
2800.35	0.638
2809.24	0.6363
2818.12	0.6344
2827.01	0.6322
2835.89	0.63
2844.78	0.6283
2853.67	0.6268
2862.55	0.6254
2871.44	0.6246
2880.32	0.6239
2889.21	0.6233
2898.09	0.6228
2906.98	0.6213
2915.87	0.6193
2924.75	0.6172
2933.64	0.6157
2942.52	0.6148
2951.41	0.6142
2960.29	0.6143
2969.18	0.6143
2978.07	0.6144
2986.95	0.6146
2995.84	0.6147
3004.72	0.6147
3013.61	0.6146
3022.49	0.6136
3031.38	0.6121
3040.27	0.61
3049.15	0.6066
3058.04	0.6031
3066.92	0.5988
3075.81	0.5942
3084.69	0.5889
3093.58	0.5846
3102.47	0.5842
3111.35	0.5858
3120.24	0.5888
3129.12	0.5904
3138.01	0.589
3146.89	0.587
3155.78	0.5839
3164.67	0.5772
3173.55	0.5703
3182.44	0.5655
3191.32	0.5639
3200.21	0.5633
3209.09	0.5632
3217.98	0.563
3226.87	0.5626
3235.75	0.5606
3244.64	0.5521
3253.52	0.5432
3262.41	0.532
3271.29	0.5214
3280.18	0.51
3289.07	0.4963
3297.95	0.4837
3306.84	0.473
3315.72	0.4558
3324.61	0.3913
3333.49	0.3169
3342.38	0.2858
3351.27	0.3063
3360.15	0.3634
3369.04	0.4203
3377.92	0.4768
3386.81	0.5332
3395.69	0.5878
3404.58	0.6036
3413.47	0.6047
3422.35	0.6029
3431.24	0.5734
3440.12	0.5356
3449.01	0.498
3457.89	0.4607
3466.78	0.4271
3475.67	0.429
3484.55	0.4798
3493.44	0.5307
3502.32	0.5749
3511.21	0.5924
3520.09	0.6079
3528.98	0.6161
3537.87	0.6213
3546.75	0.6251
3555.64	0.6274
3564.52	0.6284
3573.41	0.6289
3582.29	0.629
3591.18	0.6288
3600.07	0.6283
3608.95	0.6277
3617.84	0.6271
3626.72	0.6263
3635.61	0.6252
3644.49	0.6239
3653.38	0.6227
3662.27	0.6217
3671.15	0.6208
3680.04	0.6198
3688.92	0.6189
3697.81	0.6178
3706.7	0.6167
3715.58	0.6158
3724.47	0.6153
3733.35	0.6149
3742.24	0.6145
3751.12	0.6139
3760.01	0.6132
3768.9	0.6127
3777.78	0.6116
3786.67	0.6098
3795.55	0.605
3804.44	0.6012
3813.32	0.6006
3822.21	0.6004
3831.1	0.6001
3839.98	0.5997
3848.87	0.5994
3857.75	0.599
3866.64	0.5986
3875.52	0.5983
3884.41	0.5979
3893.3	0.5975
3902.18	0.5972
3911.07	0.5967
3919.95	0.5961
3928.84	0.5956
3937.72	0.5948
3946.61	0.5939
3955.5	0.5929
