Infrared Spectrum: (2,4-Dimethylphenyl)ethanone
Formula: C 10 H 12 O
CAS: 89-74-7
State: gas
Instrument: HP-GC/MS/IRD
Origin: NIST Mass Spectrometry Data Center
1/CM	ABSORBANCE
550	0.0017664
562	0.0004807
574	0.001311
586	0.0023736
598	0.0018561
610	0.0006854
622	0.0002323
634	0.0002231
646	0.0002576
658	0.0007751
670	0.0016284
682	0.0008165
694	0.0001633
706	5.98e-05
718	8.74e-05
730	0.0001725
742	4.6e-05
754	5.75e-05
766	2.53e-05
778	0.0001495
790	0.0009384
802	0.0033465
814	0.0044413
826	0.0018078
838	0.0003634
850	0.0002231
862	0.0003841
874	0.00069
886	0.00046
898	0.0004876
910	0.0008809
922	0.0007291
934	0.0005497
946	0.0015088
958	0.0033189
970	0.0027462
982	0.0011891
994	0.0009821
1006	0.0010511
1018	0.0010787
1030	0.0011523
1042	0.001449
1054	0.0018745
1066	0.001449
1078	0.0006716
1090	0.0004025
1102	0.0004347
1114	0.0005244
1126	0.0008602
1138	0.0016698
1150	0.0016652
1162	0.0009338
1174	0.0007429
1186	0.000874
1198	0.0014375
1210	0.0027715
1222	0.0064561
1234	0.0097037
1246	0.0121923
1258	0.0098854
1270	0.0047058
1282	0.0054717
1294	0.0037237
1306	0.0012374
1318	0.0010419
1330	0.0015985
1342	0.0029854
1354	0.0060191
1366	0.005267
1378	0.0028382
1390	0.0024771
1402	0.0021045
1414	0.002208
1426	0.0026726
1438	0.003151
1450	0.003312
1462	0.0027531
1474	0.002162
1486	0.0019435
1498	0.0018262
1510	0.001449
1522	0.0013892
1534	0.0015364
1546	0.0017733
1558	0.0023414
1570	0.002461
1582	0.0019757
1594	0.0030521
1606	0.0060973
1618	0.005543
1630	0.0022655
1642	0.0014145
1654	0.0018469
1666	0.0028911
1678	0.0052647
1690	0.0138598
1702	0.023
1714	0.0127213
1726	0.0051474
1738	0.0029118
1750	0.0015916
1762	0.0008165
1774	0.0005014
1786	0.0003358
1798	0.0002622
1810	0.0002507
1822	0.0002369
1834	0.0001909
1846	0.0001541
1858	0.0001886
1870	0.0002369
1882	0.0003726
1894	0.0003887
1906	0.0003289
1918	0.0002875
1930	0.0002139
1942	0.0001633
1954	0.000138
1966	8.97e-05
1978	7.82e-05
1990	6.21e-05
2002	7.59e-05
2014	8.51e-05
2026	0.0001012
2038	5.75e-05
2050	5.52e-05
2062	3.22e-05
2074	3.91e-05
2086	4.6e-05
2098	2.3e-05
2110	3.68e-05
2122	5.98e-05
2134	3.22e-05
2146	4.83e-05
2158	5.98e-05
2170	3.91e-05
2182	3.45e-05
2194	5.29e-05
2206	7.13e-05
2218	2.3e-05
2230	1.84e-05
2242	1.61e-05
2254	4.6e-05
2266	5.75e-05
2278	8.05e-05
2290	7.59e-05
2302	0.0001357
2314	0.0001196
2326	0.0001196
2338	9.66e-05
2350	9.2e-05
2362	0.0001012
2374	7.13e-05
2386	7.13e-05
2398	6.9e-05
2410	8.97e-05
2422	7.82e-05
2434	3.45e-05
2446	7.13e-05
2458	7.13e-05
2470	7.13e-05
2482	7.36e-05
2494	7.82e-05
2506	9.43e-05
2518	4.14e-05
2530	6.67e-05
2542	6.9e-05
2554	7.59e-05
2566	6.21e-05
2578	2.76e-05
2590	6.21e-05
2602	6.44e-05
2614	5.06e-05
2626	5.98e-05
2638	4.37e-05
2650	1.38e-05
2662	5.52e-05
2674	9.43e-05
2686	8.28e-05
2698	3.45e-05
2710	4.14e-05
2722	0.0001104
2734	0.0002415
2746	0.0003151
2758	0.0002438
2770	0.0001265
2782	0.0001311
2794	0.0001587
2806	0.0002484
2818	0.0003565
2830	0.0004876
2842	0.0007544
2854	0.0012351
2866	0.0019366
2878	0.0023299
2890	0.0023069
2902	0.0023966
2914	0.0030843
2926	0.0050738
2938	0.0060375
2950	0.0043355
2962	0.0031326
2974	0.0033143
2986	0.0035627
2998	0.0039192
3010	0.0047449
3022	0.0049496
3034	0.0039169
3046	0.0031602
3058	0.0024403
3070	0.0020056
3082	0.0015433
3094	0.0011477
3106	0.0010212
3118	0.0008188
3130	0.0004899
3142	0.000299
3154	0.0002093
3166	0.0001794
3178	0.0001311
3190	7.82e-05
3202	0.0001219
3214	0.0001035
3226	5.06e-05
3238	4.37e-05
3250	7.13e-05
3262	2.76e-05
3274	3.68e-05
3286	0.0001035
3298	5.98e-05
3310	7.36e-05
3322	4.6e-05
3334	8.74e-05
3346	0.0001265
3358	0.0001817
3370	0.0002599
3382	0.000368
3394	0.0003404
3406	0.0001978
3418	0.0001265
3430	2.07e-05
3442	6.9e-05
3454	6.67e-05
3466	4.6e-05
3478	7.36e-05
3490	6.21e-05
3502	4.6e-05
3514	0
3526	5.98e-05
3538	2.53e-05
3550	4.37e-05
3562	6.21e-05
3574	6.67e-05
3586	2.3e-05
3598	5.29e-05
3610	7.59e-05
3622	5.98e-05
3634	1.61e-05
3646	9.2e-06
3658	6.21e-05
3670	0.0001035
3682	6.67e-05
3694	3.45e-05
3706	5.98e-05
3718	2.76e-05
3730	0.0001219
3742	7.82e-05
3754	6.44e-05
3766	9.2e-05
3778	4.83e-05
3790	2.3e-06
3802	1.61e-05
3814	7.59e-05
3826	2.99e-05
3838	7.59e-05
