Infrared Spectrum: Isopulegol
Formula: C 10 H 18 O
CAS: 89-79-2
State: gas
Instrument: HP-GC/MS/IRD
Origin: NIST Mass Spectrometry Data Center
1/CM	ABSORBANCE
550	0.001389
562	0.000588
574	0.000282
586	0.000309
598	0.00027
610	9.6e-05
622	9.9e-05
634	0.000198
646	2.4e-05
658	9.3e-05
670	0.000102
682	0.000114
694	0.000111
706	0.000162
718	5.4e-05
730	6.9e-05
742	3e-05
754	0.000168
766	9.6e-05
778	6.3e-05
790	9e-05
802	0.000162
814	0.000207
826	0.000495
838	0.001452
850	0.001836
862	0.001032
874	0.00153
886	0.004101
898	0.005493
910	0.002973
922	0.001839
934	0.001671
946	0.00093
958	0.000777
970	0.000942
982	0.001488
994	0.002514
1006	0.003276
1018	0.004746
1030	0.00606
1042	0.006153
1054	0.006045
1066	0.00354
1078	0.002928
1090	0.003789
1102	0.003306
1114	0.002292
1126	0.002019
1138	0.001308
1150	0.000981
1162	0.001005
1174	0.000906
1186	0.000948
1198	0.001131
1210	0.001587
1222	0.002064
1234	0.00216
1246	0.002319
1258	0.002481
1270	0.002973
1282	0.003537
1294	0.002748
1306	0.001902
1318	0.001632
1330	0.001809
1342	0.002208
1354	0.002568
1366	0.003237
1378	0.004557
1390	0.003645
1402	0.002139
1414	0.001551
1426	0.001713
1438	0.00291
1450	0.004935
1462	0.004626
1474	0.002277
1486	0.000927
1498	0.000537
1510	0.000399
1522	0.000336
1534	0.000297
1546	0.000237
1558	0.000303
1570	0.000321
1582	0.000375
1594	0.000429
1606	0.00057
1618	0.000963
1630	0.00195
1642	0.003039
1654	0.001665
1666	0.000495
1678	0.000228
1690	0.000192
1702	0.00015
1714	8.1e-05
1726	7.2e-05
1738	9.3e-05
1750	9.9e-05
1762	0.000108
1774	0.000198
1786	0.000321
1798	0.000447
1810	0.000324
1822	0.000141
1834	4.8e-05
1846	6e-05
1858	6.6e-05
1870	6.3e-05
1882	3.9e-05
1894	4.5e-05
1906	4.5e-05
1918	9e-06
1930	4.2e-05
1942	2.4e-05
1954	4.5e-05
1966	4.5e-05
1978	6e-05
1990	4.2e-05
2002	3e-05
2014	3e-05
2026	2.1e-05
2038	5.1e-05
2050	5.1e-05
2062	5.1e-05
2074	6.6e-05
2086	5.4e-05
2098	5.1e-05
2110	3.6e-05
2122	2.1e-05
2134	4.2e-05
2146	3.6e-05
2158	3.9e-05
2170	1.5e-05
2182	6.3e-05
2194	6.3e-05
2206	6e-05
2218	6e-05
2230	6.6e-05
2242	2.7e-05
2254	4.2e-05
2266	7.5e-05
2278	6.3e-05
2290	8.7e-05
2302	8.1e-05
2314	0.000123
2326	9.3e-05
2338	0.000135
2350	0.00012
2362	0.000138
2374	0.000171
2386	0.000138
2398	0.000123
2410	0.000114
2422	9.9e-05
2434	0.000159
2446	0.000156
2458	0.000144
2470	0.000126
2482	0.000129
2494	0.000156
2506	0.000138
2518	0.000144
2530	0.000174
2542	0.000156
2554	0.000135
2566	0.00018
2578	0.000273
2590	0.000264
2602	0.000276
2614	0.000312
2626	0.000372
2638	0.000375
2650	0.000417
2662	0.000357
2674	0.000399
2686	0.000405
2698	0.000381
2710	0.000438
2722	0.00051
2734	0.000606
2746	0.000579
2758	0.000561
2770	0.000615
2782	0.000699
2794	0.000873
2806	0.001104
2818	0.001311
2830	0.001857
2842	0.003819
2854	0.008301
2866	0.011313
2878	0.013341
2890	0.01143
2902	0.010266
2914	0.015531
2926	0.027606
2938	0.027417
2950	0.016647
2962	0.015909
2974	0.0102
2986	0.005169
2998	0.002703
3010	0.00162
3022	0.001206
3034	0.001002
3046	0.000957
3058	0.001341
3070	0.002817
3082	0.003966
3094	0.001704
3106	0.000702
3118	0.000528
3130	0.000444
3142	0.000417
3154	0.000312
3166	0.000288
3178	0.000189
3190	0.000213
3202	0.000207
3214	0.00015
3226	0.000123
3238	0.000114
3250	0.000153
3262	0.000108
3274	4.8e-05
3286	1.2e-05
3298	6.3e-05
3310	0.000105
3322	7.8e-05
3334	0.000141
3346	7.8e-05
3358	9.9e-05
3370	0.000111
3382	0.000117
3394	6.9e-05
3406	8.4e-05
3418	1.8e-05
3430	8.7e-05
3442	8.4e-05
3454	9.9e-05
3466	6.9e-05
3478	9.6e-05
3490	7.5e-05
3502	4.5e-05
3514	6.3e-05
3526	0.000123
3538	0.000111
3550	5.1e-05
3562	0.000129
3574	0.000231
3586	0.000414
3598	0.001119
3610	0.001779
3622	0.001833
3634	0.001398
3646	0.000942
3658	0.000519
3670	0.00021
3682	0.000177
3694	9.3e-05
3706	9e-05
3718	9e-05
3730	6e-06
3742	1.8e-05
3754	2.4e-05
3766	4.8e-05
3778	8.4e-05
3790	7.2e-05
3802	6.9e-05
3814	0.000138
3826	0.000147
3838	7.5e-05
