Infrared Spectrum: 2-Amino-4-chlorobenzoic acid
Formula: C 7 H 6 Cl N O 2
CAS: 89-77-0
State: gas
Instrument: HP-GC/MS/IRD
Origin: NIST Mass Spectrometry Data Center
1/CM	ABSORBANCE
550	0.0024947
562	0.0038266
574	0.0023351
586	0.0010222
598	0.0006726
610	0.0006498
622	0.0007714
634	0.0008094
646	0.000836
658	0.0007296
670	0.001178
682	0.002565
694	0.0027569
706	0.0014402
718	0.0007828
730	0.0010925
742	0.0019608
754	0.0015542
766	0.003116
778	0.0023142
790	0.0008949
802	0.0005282
814	0.0004807
826	0.0005947
838	0.0013224
850	0.0016017
862	0.0009158
874	0.0006422
886	0.0007714
898	0.0012825
910	0.0031407
922	0.0035017
934	0.0006137
946	0.0002565
958	0.0001729
970	6.65e-05
982	8.93e-05
994	0.0001767
1006	0.000266
1018	0.000551
1030	0.0008911
1042	0.0017537
1054	0.0035701
1066	0.0064049
1078	0.0118427
1090	0.0098458
1102	0.0037962
1114	0.0019475
1126	0.0016093
1138	0.0018734
1150	0.0033972
1162	0.0061294
1174	0.0118845
1186	0.006859
1198	0.002223
1210	0.0013376
1222	0.0014155
1234	0.0024035
1246	0.0034599
1258	0.0025365
1270	0.0010336
1282	0.0005757
1294	0.0006156
1306	0.0012388
1318	0.001976
1330	0.0015732
1342	0.0013965
1354	0.0028196
1366	0.0029431
1378	0.0018981
1390	0.0011134
1402	0.0006897
1414	0.0013604
1426	0.0022648
1438	0.0018544
1450	0.0007106
1462	0.0004598
1474	0.0012369
1486	0.0022287
1498	0.0012217
1510	0.0004788
1522	0.0005035
1534	0.0008968
1546	0.0024415
1558	0.0044023
1570	0.0034162
1582	0.0053086
1594	0.0083144
1606	0.0115197
1618	0.0134539
1630	0.0079781
1642	0.0024738
1654	0.0011628
1666	0.0009234
1678	0.0009747
1690	0.0014364
1702	0.0030343
1714	0.0081358
1726	0.0185554
1738	0.012654
1750	0.005662
1762	0.0029355
1774	0.0008683
1786	0.0005472
1798	0.000608
1810	0.0003857
1822	0.0001824
1834	8.55e-05
1846	6.08e-05
1858	4.94e-05
1870	4.18e-05
1882	0.0001045
1894	0.0002052
1906	0.0002109
1918	0.000171
1930	8.74e-05
1942	2.85e-05
1954	4.94e-05
1966	3.8e-06
1978	1.9e-05
1990	1.33e-05
2002	5.7e-06
2014	1.9e-05
2026	0
2038	2.47e-05
2050	1.33e-05
2062	2.09e-05
2074	3.99e-05
2086	7.79e-05
2098	7.6e-05
2110	8.17e-05
2122	7.03e-05
2134	8.74e-05
2146	8.55e-05
2158	5.89e-05
2170	8.93e-05
2182	7.22e-05
2194	5.7e-05
2206	7.79e-05
2218	4.94e-05
2230	6.84e-05
2242	4.56e-05
2254	6.08e-05
2266	6.27e-05
2278	6.27e-05
2290	9.12e-05
2302	0.0001083
2314	0.0001102
2326	0.0001349
2338	0.0001577
2350	0.0001577
2362	0.0001159
2374	0.0001064
2386	8.36e-05
2398	9.5e-05
2410	8.36e-05
2422	9.31e-05
2434	8.74e-05
2446	8.17e-05
2458	7.6e-05
2470	9.69e-05
2482	9.69e-05
2494	7.22e-05
2506	5.13e-05
2518	7.98e-05
2530	8.74e-05
2542	6.08e-05
2554	8.93e-05
2566	7.41e-05
2578	7.79e-05
2590	8.36e-05
2602	8.93e-05
2614	5.89e-05
2626	6.27e-05
2638	8.93e-05
2650	0.0001045
2662	0.0001292
2674	0.0001083
2686	0.0001159
2698	9.69e-05
2710	8.17e-05
2722	0.0001121
2734	0.0001444
2746	0.0001482
2758	0.0001501
2770	0.0001083
2782	0.0001558
2794	9.31e-05
2806	0.0001007
2818	0.0001254
2830	0.0001235
2842	0.0001083
2854	6.65e-05
2866	0.000133
2878	0.0001349
2890	0.0001577
2902	0.0001216
2914	8.93e-05
2926	9.31e-05
2938	7.79e-05
2950	5.51e-05
2962	6.65e-05
2974	4.18e-05
2986	7.22e-05
2998	6.27e-05
3010	9.12e-05
3022	0.0001292
3034	0.0001482
3046	0.0002546
3058	0.00019
3070	0.0002033
3082	0.00019
3094	0.0002413
3106	0.0001824
3118	0.000114
3130	8.17e-05
3142	0.0001349
3154	0.0001425
3166	0.0001786
3178	0.0001577
3190	0.0001216
3202	7.03e-05
3214	0.0001368
3226	6.08e-05
3238	0.0001102
3250	0.0001007
3262	0.0001311
3274	0.0001254
3286	0.0001957
3298	0.0002185
3310	0.0002584
3322	0.0002983
3334	0.0003097
3346	0.0004465
3358	0.0005377
3370	0.0013034
3382	0.0034352
3394	0.0031217
3406	0.0013129
3418	0.0005624
3430	0.0006137
3442	0.0006289
3454	0.0004332
3466	0.0003914
3478	0.000437
3490	0.0006403
3502	0.0011704
3514	0.0019912
3526	0.0021128
3538	0.0011837
3550	0.0006726
3562	0.0008645
3574	0.0036442
3586	0.0069882
3598	0.0017822
3610	0.0003154
3622	0.0001729
3634	0.0001691
3646	0.0001729
3658	0.0001368
3670	0.0001672
3682	0.0001387
3694	0.0001387
3706	0.0001102
3718	0.000133
3730	0.0001102
3742	0.0001634
3754	0.0001083
3766	0.0001273
3778	7.03e-05
3790	0.0001273
3802	0.0001254
3814	0.0001178
3826	0.0001254
3838	0.0001083
