Infrared Spectrum: Pulegone
Formula: C 10 H 16 O
CAS: 89-82-7
State: gas
Instrument: HP-GC/MS/IRD
Origin: NIST Mass Spectrometry Data Center
1/CM	ABSORBANCE
550	0.0001494
562	0.0001314
574	0.0001062
586	7.92e-05
598	0.00018
610	0.000198
622	0.0004248
634	0.0010782
646	0.0015822
658	0.0010422
670	0.0006588
682	0.0005958
694	0.0004122
706	0.0003546
718	0.000243
730	0.0001242
742	0.0001296
754	0.0001008
766	0.0001332
778	0.0001476
790	0.000126
802	5.4e-05
814	5.04e-05
826	6.84e-05
838	0.0001386
850	0.0002322
862	0.0004176
874	0.0006912
886	0.0005742
898	0.0004446
910	0.0004698
922	0.000495
934	0.0006174
946	0.0005598
958	0.000459
970	0.0004464
982	0.0006426
994	0.0010224
1006	0.0015552
1018	0.0020538
1030	0.0017046
1042	0.0009198
1054	0.0007596
1066	0.0010548
1078	0.001674
1090	0.002268
1102	0.0025488
1114	0.003024
1126	0.0036414
1138	0.0029214
1150	0.0016056
1162	0.0012636
1174	0.0013806
1186	0.0023058
1198	0.0045432
1210	0.0043668
1222	0.0022464
1234	0.001449
1246	0.0012852
1258	0.0018216
1270	0.0039906
1282	0.0062172
1294	0.0035226
1306	0.0014958
1318	0.0014796
1330	0.001719
1342	0.0016614
1354	0.0016668
1366	0.0023796
1378	0.0034542
1390	0.00279
1402	0.0016956
1414	0.0019782
1426	0.0024372
1438	0.002862
1450	0.0034794
1462	0.0032238
1474	0.0021456
1486	0.0013752
1498	0.0011124
1510	0.0010296
1522	0.0010476
1534	0.0011394
1546	0.0013284
1558	0.0015624
1570	0.0019944
1582	0.0025434
1594	0.0032436
1606	0.0043776
1618	0.0057348
1630	0.005256
1642	0.003141
1654	0.0022806
1666	0.002889
1678	0.005769
1690	0.0139932
1702	0.0164142
1714	0.007263
1726	0.0027216
1738	0.0014346
1750	0.000828
1762	0.0005328
1774	0.000369
1786	0.0002862
1798	0.0002178
1810	0.0001512
1822	0.000117
1834	0.0001062
1846	0.0001044
1858	9.18e-05
1870	9.72e-05
1882	0.000117
1894	0.0001026
1906	8.28e-05
1918	0.0001062
1930	8.46e-05
1942	6.48e-05
1954	6.12e-05
1966	4.86e-05
1978	4.32e-05
1990	6.84e-05
2002	3.42e-05
2014	6.48e-05
2026	2.16e-05
2038	3.06e-05
2050	3.78e-05
2062	3.96e-05
2074	3.6e-05
2086	0
2098	1.98e-05
2110	2.7e-05
2122	5.94e-05
2134	4.14e-05
2146	3.78e-05
2158	3.24e-05
2170	1.26e-05
2182	3.78e-05
2194	5.04e-05
2206	5.94e-05
2218	7.02e-05
2230	8.64e-05
2242	6.84e-05
2254	4.86e-05
2266	4.14e-05
2278	9.18e-05
2290	7.2e-05
2302	3.42e-05
2314	4.68e-05
2326	5.58e-05
2338	6.3e-05
2350	3.6e-05
2362	4.14e-05
2374	4.5e-05
2386	5.58e-05
2398	8.1e-05
2410	8.64e-05
2422	8.46e-05
2434	8.64e-05
2446	8.1e-05
2458	4.68e-05
2470	0.000117
2482	0.0001044
2494	8.82e-05
2506	0.0001026
2518	0.0001152
2530	0.0001008
2542	0.0001296
2554	0.0001368
2566	0.0001134
2578	0.0001584
2590	0.0001548
2602	0.000153
2614	0.0002016
2626	0.0001926
2638	0.000216
2650	0.0002682
2662	0.0002574
2674	0.000234
2686	0.0002466
2698	0.0002484
2710	0.0003078
2722	0.0004212
2734	0.0005544
2746	0.0006156
2758	0.0005166
2770	0.0004986
2782	0.0005778
2794	0.0007056
2806	0.0009126
2818	0.001251
2830	0.0017892
2842	0.0030654
2854	0.0052398
2866	0.006867
2878	0.008343
2890	0.008577
2902	0.009126
2914	0.013212
2926	0.0177318
2938	0.0157662
2950	0.0116982
2962	0.0146448
2974	0.0102492
2986	0.0044802
2998	0.0028836
3010	0.0025128
3022	0.0022284
3034	0.0018198
3046	0.0014238
3058	0.0011178
3070	0.000891
3082	0.0007632
3094	0.0005382
3106	0.0004878
3118	0.0003906
3130	0.000396
3142	0.0003528
3154	0.0003042
3166	0.000261
3178	0.0002556
3190	0.0002592
3202	0.0002142
3214	0.0002196
3226	0.0001818
3238	0.0001854
3250	0.0001476
3262	0.0001566
3274	0.000153
3286	0.0001728
3298	0.0001584
3310	0.0001728
3322	0.0001656
3334	0.000261
3346	0.0002016
3358	0.0002844
3370	0.0003348
3382	0.0003384
3394	0.0003348
3406	0.0002358
3418	0.0001422
3430	0.0001854
3442	0.0001224
3454	0.000144
3466	0.000126
3478	5.22e-05
3490	8.82e-05
3502	4.68e-05
3514	7.56e-05
3526	0.0001134
3538	8.46e-05
3550	0.0001098
3562	7.02e-05
3574	9.36e-05
3586	9.36e-05
3598	5.04e-05
3610	9.9e-05
3622	6.48e-05
3634	6.66e-05
3646	9e-05
3658	0.0001368
3670	5.94e-05
3682	6.48e-05
3694	5.58e-05
3706	0.0001062
3718	9.72e-05
3730	8.46e-05
3742	0.0001206
3754	8.82e-05
3766	6.12e-05
3778	0.0001242
3790	0.0001638
3802	0.0001404
3814	0.00018
3826	0.0001638
3838	0.000171
