Infrared Spectrum: THYMOL
Formula: C10 H14 O
CAS: 89-83-8
State: SOLUTION (10% IN CCl4 FOR 3800-1335, 10% IN CS2 FOR 1335-450 CM^-^1)
Class: COBLENTZ III
Instrument: DOW KBr FOREPRISM-GRATING
Instrument parameters: BLAZED AT 3.5, 12.0, 20.0 MICRONS AND CHANGED AT 5.0, 7.5, 14.9 MICRONS
Sampling: TRANSMISSION
Path length: 0.011 CM, 0.011 CM
Resolution: 2
Origin: DOW CHEMICAL COMPANY
1/CM	TRANSMITTANCE
450.975	0.789
459.576	0.777
468.177	0.775
476.778	0.795
485.379	0.8
493.98	0.767
502.58	0.758
511.181	0.825
519.782	0.826
528.383	0.876
536.984	0.881
545.585	0.883
554.186	0.883
562.787	0.876
571.388	0.834
579.989	0.508
588.59	0.63
597.19	0.445
605.791	0.888
614.392	0.906
622.993	0.912
631.594	0.912
640.195	0.903
648.796	0.88
657.397	0.871
665.998	0.922
674.599	0.939
683.2	0.93
691.8	0.875
700.401	0.924
709.002	0.948
717.603	0.948
726.204	0.931
734.805	0.727
743.406	0.922
752.007	0.969
760.608	0.977
769.209	0.974
777.81	0.963
786.41	0.93
795.011	0.826
803.612	0.148
812.213	0.379
820.814	0.825
829.415	0.904
838.016	0.793
846.617	0.616
855.218	0.632
863.819	0.621
872.42	0.844
881.021	0.857
889.621	0.954
898.222	0.969
906.823	0.969
915.424	0.93
924.025	0.919
932.626	0.774
941.227	0.224
949.828	0.699
958.429	0.91
967.03	0.944
975.631	0.95
984.231	0.93
992.832	0.873
1001.43	0.791
1010.03	0.891
1018.64	0.919
1027.24	0.867
1035.84	0.818
1044.44	0.8
1053.04	0.757
1061.64	0.739
1070.24	0.826
1078.84	0.561
1087.44	0.369
1096.04	0.715
1104.64	0.578
1113.25	0.586
1121.85	0.614
1130.45	0.704
1139.05	0.413
1147.65	0.103
1156.25	0.391
1164.85	0.469
1173.45	0.279
1182.05	0.414
1190.65	0.57
1199.25	0.605
1207.86	0.432
1216.46	0.245
1225.06	0.315
1233.66	0.582
1242.26	0.685
1250.86	0.677
1259.46	0.492
1268.06	0.406
1276.66	0.539
1285.26	0.159
1293.86	0.42
1302.47	0.456
1311.07	0.532
1319.67	0.64
1328.27	0.685
1336.87	0.72
1345.47	0.742
1354.07	0.782
1362.67	0.578
1371.27	0.794
1379.87	0.68
1388.47	0.758
1397.08	0.743
1405.68	0.507
1414.28	0.259
1422.88	0.259
1431.48	0.39
1440.08	0.391
1448.68	0.326
1457.28	0.238
1465.88	0.369
1474.48	0.616
1483.08	0.689
1491.69	0.7
1500.29	0.518
1508.89	0.336
1517.49	0.353
1526.09	0.426
1534.69	0.444
1543.29	0.442
1551.89	0.451
1560.49	0.487
1569.09	0.421
1577.69	0.322
1586.3	0.342
1594.9	0.673
1603.5	0.689
1612.1	0.54
1620.7	0.43
1629.3	0.61
1637.9	0.853
1646.5	0.918
1655.1	0.931
1663.7	0.938
1672.3	0.944
1680.91	0.942
1689.51	0.947
1698.11	0.958
1706.71	0.955
1715.31	0.962
1723.91	0.954
1732.51	0.948
1741.11	0.943
1749.71	0.957
1758.31	0.97
1766.91	0.978
1775.52	0.974
1784.12	0.969
1792.72	0.97
1801.32	0.97
1809.92	0.971
1818.52	0.973
1827.12	0.974
1835.72	0.967
1844.32	0.962
1852.92	0.961
1861.52	0.958
1870.13	0.936
1878.73	0.912
1887.33	0.943
1895.93	0.961
1904.53	0.974
1913.13	0.978
1921.73	0.981
1930.33	0.983
1938.93	0.981
1947.53	0.979
1956.13	0.979
1964.74	0.979
1973.34	0.979
1981.94	0.979
1990.54	0.978
1999.14	0.975
2007.74	0.973
2016.34	0.971
2024.94	0.9723
2033.54	0.974
2042.14	0.975
2050.74	0.977
2059.35	0.978
2067.95	0.979
2076.55	0.981
2085.15	0.981
2093.75	0.979
2102.35	0.978
2110.95	0.978
2119.55	0.9813
2128.15	0.983
2136.75	0.983
2145.35	0.982
2153.96	0.979
2162.56	0.978
2171.16	0.979
2179.76	0.981
2188.36	0.983
2196.96	0.983
2205.56	0.981
2214.16	0.9771
2222.76	0.974
2231.36	0.97
2239.96	0.966
2248.57	0.963
2257.17	0.961
2265.77	0.958
2274.37	0.955
2282.97	0.953
2291.57	0.9505
2300.17	0.948
2308.77	0.948
2317.37	0.95
2325.97	0.954
2334.57	0.958
2343.18	0.9628
2351.78	0.9669
2360.38	0.969
2368.98	0.966
2377.58	0.961
2386.18	0.959
2394.78	0.958
2403.38	0.957
2411.98	0.958
2420.58	0.958
2429.18	0.958
2437.79	0.958
2446.39	0.958
2454.99	0.958
2463.59	0.958
2472.19	0.958
2480.79	0.958
2489.39	0.958
2497.99	0.957
2506.59	0.957
2515.19	0.957
2523.79	0.957
2532.4	0.957
2541	0.957
2549.6	0.9578
2558.2	0.955
2566.8	0.954
2575.4	0.954
2584	0.955
2592.6	0.955
2601.2	0.955
2609.8	0.957
2618.4	0.957
2627.01	0.957
2635.61	0.957
2644.21	0.957
2652.81	0.955
2661.41	0.954
2670.01	0.954
2678.61	0.9509
2687.21	0.9478
2695.81	0.943
2704.41	0.9387
2713.01	0.9327
2721.62	0.9132
2730.22	0.912
2738.82	0.9375
2747.42	0.938
2756.02	0.9409
2764.62	0.947
2773.22	0.946
2781.82	0.9396
2790.42	0.9245
2799.02	0.9072
2807.62	0.892
2816.23	0.88
2824.83	0.8679
2833.43	0.8267
2842.03	0.7426
2850.63	0.5959
2859.23	0.4304
2867.83	0.3191
2876.43	0.4124
2885.03	0.4815
2893.63	0.4607
2902.23	0.4132
2910.84	0.3265
2919.44	0.2593
2928.04	0.2696
2936.64	0.2934
2945.24	0.2322
2953.84	0.1073
2962.44	0.0511
2971.04	0.223
2979.64	0.4429
2988.24	0.5736
2996.84	0.6316
3005.45	0.6353
3014.05	0.6312
3022.65	0.6244
3031.25	0.66
3039.85	0.7439
3048.45	0.7744
3057.05	0.7644
3065.65	0.7915
3074.25	0.8704
3082.85	0.8787
3091.45	0.8886
3100.06	0.9157
3108.66	0.932
3117.26	0.926
3125.86	0.922
3134.46	0.922
3143.06	0.919
3151.66	0.9147
3160.26	0.9092
3168.86	0.9051
3177.46	0.8995
3186.06	0.8939
3194.67	0.8884
3203.27	0.8833
3211.87	0.8775
3220.47	0.8722
3229.07	0.8672
3237.67	0.8612
3246.27	0.8491
3254.87	0.8368
3263.47	0.8328
3272.07	0.8166
3280.67	0.8018
3289.28	0.79
3297.88	0.7768
3306.48	0.7623
3315.08	0.7487
3323.68	0.735
3332.28	0.7214
3340.88	0.7122
3349.48	0.6974
3358.08	0.6861
3366.68	0.6762
3375.28	0.6632
3383.89	0.6493
3392.49	0.6372
3401.09	0.628
3409.69	0.6118
3418.29	0.5966
3426.89	0.5828
3435.49	0.574
3444.09	0.5577
3452.69	0.5473
3461.29	0.5412
3469.89	0.539
3478.5	0.542
3487.1	0.5476
3495.7	0.5577
3504.3	0.5583
3512.9	0.5572
3521.5	0.5567
3530.1	0.5683
3538.7	0.6149
3547.3	0.6531
3555.9	0.6921
3564.5	0.691
3573.11	0.6364
3581.71	0.5821
3590.31	0.4782
3598.91	0.3112
3607.51	0.2261
3616.11	0.682
3624.71	0.8736
3633.31	0.8979
3641.91	0.9459
3650.51	0.9537
3659.11	0.9605
3667.72	0.9658
3676.32	0.9709
3684.92	0.975
3693.52	0.978
3702.12	0.9791
3710.72	0.9811
3719.32	0.982
3727.92	0.983
3736.52	0.983
3745.12	0.982
3753.72	0.981
3762.33	0.981
3770.93	0.981
3779.53	0.981
3788.13	0.981
3796.73	0.979
3805.33	0.977
