Infrared Spectrum: PIPERITONE
Formula: C10 H16 O
CAS: 89-81-6
State: LIQUID (SMEAR)
Class: COBLENTZ
Instrument: Not specified, most likely a prism, grating, or hybrid spectrometer.
Sampling: TRANSMISSION
Resolution: 4
Origin: BATTELLE MEMORIAL INSTITUTE
MICROMETERS	TRANSMITTANCE
2.041	0.928
2.07774	0.93
2.11447	0.93
2.15121	0.93
2.18794	0.93
2.22468	0.93
2.26141	0.93
2.29815	0.928
2.33488	0.921
2.37162	0.92
2.40835	0.921
2.44509	0.922
2.48183	0.922
2.51856	0.925
2.5553	0.926
2.59203	0.926
2.62877	0.927
2.6655	0.928
2.70224	0.93
2.73897	0.93
2.77571	0.919
2.81244	0.898
2.84918	0.846
2.88592	0.84
2.92265	0.85
2.95939	0.871
2.99612	0.883
3.03286	0.887
3.06959	0.9
3.10633	0.909
3.14306	0.912
3.1798	0.912
3.21654	0.912
3.25327	0.912
3.29001	0.881
3.32674	0.851
3.36348	0.525
3.40021	0.395
3.43695	0.463
3.47368	0.584
3.51042	0.649
3.54715	0.738
3.58389	0.872
3.62063	0.899
3.65736	0.906
3.6941	0.908
3.73083	0.914
3.76757	0.919
3.8043	0.92
3.84104	0.922
3.87777	0.924
3.91451	0.927
3.95124	0.928
3.98798	0.928
4.02472	0.928
4.06145	0.93
4.09819	0.93
4.13492	0.93
4.17166	0.93
4.20839	0.928
4.24513	0.93
4.28186	0.93
4.3186	0.93
4.35533	0.93
4.39207	0.931
4.42881	0.932
4.46554	0.933
4.50228	0.933
4.53901	0.933
4.57575	0.933
4.61248	0.933
4.64922	0.933
4.68595	0.933
4.72269	0.933
4.75943	0.933
4.79616	0.933
4.8329	0.933
4.86963	0.933
4.90637	0.933
4.9431	0.933
4.97984	0.933
5.01657	0.933
5.05331	0.932
5.09004	0.932
5.12678	0.933
5.16352	0.932
5.20025	0.932
5.23699	0.932
5.27372	0.932
5.31046	0.932
5.34719	0.932
5.38393	0.931
5.42066	0.931
5.4574	0.93
5.49413	0.93
5.53087	0.928
5.56761	0.927
5.60434	0.924
5.64108	0.919
5.67781	0.909
5.71455	0.904
5.75128	0.893
5.78802	0.863
5.82475	0.845
5.86149	0.817
5.89822	0.692
5.93496	0.444
5.9717	0.174
6.00843	0.192
6.04517	0.464
6.0819	0.571
6.11864	0.601
6.15537	0.754
6.19211	0.828
6.22884	0.857
6.26558	0.883
6.30232	0.893
6.33905	0.897
6.37579	0.9
6.41252	0.903
6.44926	0.904
6.48599	0.905
6.52273	0.905
6.55946	0.905
6.5962	0.904
6.63293	0.903
6.66967	0.904
6.70641	0.894
6.74314	0.866
6.77988	0.768
6.81661	0.664
6.85335	0.664
6.89008	0.655
6.92682	0.645
6.96355	0.611
7.00029	0.61
7.03702	0.699
7.07376	0.795
7.1105	0.818
7.14723	0.824
7.18397	0.784
7.2207	0.631
7.25744	0.537
7.29417	0.638
7.33091	0.629
7.36764	0.731
7.40438	0.743
7.44111	0.761
7.47785	0.801
7.51459	0.819
7.55132	0.817
7.58806	0.75
7.62479	0.688
7.66153	0.758
7.69826	0.81
7.735	0.817
7.77173	0.827
7.80847	0.83
7.84521	0.84
7.88194	0.83
7.91868	0.824
7.95541	0.796
7.99215	0.761
8.02888	0.794
8.06562	0.834
8.10235	0.84
8.13909	0.823
8.17582	0.784
8.21256	0.667
8.2493	0.506
8.28603	0.496
8.32277	0.629
8.3595	0.697
8.39624	0.702
8.43297	0.756
8.46971	0.794
8.50644	0.801
8.54318	0.801
8.57991	0.801
8.61665	0.812
8.65339	0.838
8.69012	0.844
8.72686	0.845
8.76359	0.852
8.80033	0.852
8.83706	0.83
8.8738	0.832
8.91053	0.845
8.94727	0.849
8.984	0.848
9.02074	0.849
9.05748	0.83
9.09421	0.823
9.13095	0.849
9.16768	0.866
9.20442	0.876
9.24115	0.877
9.27789	0.852
9.31462	0.86
9.35136	0.861
9.38809	0.868
9.42483	0.872
9.46157	0.875
9.4983	0.875
9.53504	0.86
9.57177	0.859
9.60851	0.86
9.64524	0.84
9.68198	0.779
9.71871	0.747
9.75545	0.708
9.79219	0.694
9.82892	0.73
9.86566	0.785
9.90239	0.823
9.93913	0.837
9.97586	0.84
10.0126	0.839
10.0493	0.829
10.0861	0.824
10.1228	0.824
10.1595	0.85
10.1963	0.867
10.233	0.876
10.2697	0.882
10.3065	0.882
10.3432	0.882
10.38	0.881
10.4167	0.881
10.4534	0.881
10.4902	0.882
10.5269	0.881
10.5636	0.882
10.6004	0.884
10.6371	0.89
10.6738	0.89
10.7106	0.884
10.7473	0.867
10.784	0.856
10.8208	0.856
10.8575	0.863
10.8942	0.871
10.931	0.877
10.9677	0.882
11.0045	0.886
11.0412	0.886
11.0779	0.882
11.1147	0.859
11.1514	0.832
11.1881	0.8
11.2249	0.791
11.2616	0.818
11.2983	0.834
11.3351	0.832
11.3718	0.792
11.4085	0.724
11.4453	0.715
11.482	0.75
11.5188	0.785
11.5555	0.816
11.5922	0.849
11.629	0.865
11.6657	0.881
11.7024	0.884
11.7392	0.884
11.7759	0.881
11.8126	0.878
11.8494	0.889
11.8861	0.893
11.9228	0.899
11.9596	0.903
11.9963	0.905
12.033	0.905
12.0698	0.908
12.1065	0.911
12.1433	0.911
12.18	0.911
12.2167	0.908
12.2535	0.904
12.2902	0.904
12.3269	0.904
12.3637	0.905
12.4004	0.905
12.4371	0.903
12.4739	0.9
12.5106	0.898
12.5473	0.893
12.5841	0.889
12.6208	0.883
12.6576	0.861
12.6943	0.857
12.731	0.868
12.7678	0.884
12.8045	0.894
12.8412	0.9
12.878	0.903
12.9147	0.903
12.9514	0.903
12.9882	0.901
13.0249	0.9
13.0616	0.889
13.0984	0.871
13.1351	0.862
13.1718	0.862
13.2086	0.863
13.2453	0.878
13.2821	0.889
13.3188	0.893
13.3555	0.897
13.3923	0.898
13.429	0.899
13.4657	0.899
13.5025	0.899
13.5392	0.9
13.5759	0.901
13.6127	0.901
13.6494	0.901
13.6861	0.901
13.7229	0.901
13.7596	0.901
13.7964	0.901
13.8331	0.901
13.8698	0.9
13.9066	0.9
13.9433	0.899
13.98	0.899
14.0168	0.898
14.0535	0.897
14.0902	0.897
14.127	0.894
14.1637	0.892
14.2004	0.892
14.2372	0.892
14.2739	0.89
14.3106	0.888
14.3474	0.887
14.3841	0.886
14.4209	0.883
14.4576	0.881
14.4943	0.879
14.5311	0.879
14.5678	0.879
14.6045	0.878
14.6413	0.876
14.678	0.873
14.7147	0.872
14.7515	0.871
14.7882	0.866
14.8249	0.863
14.8617	0.861
14.8984	0.859
14.9352	0.859
14.9719	0.859
15.0086	0.859
15.0454	0.852
15.0821	0.846
15.1188	0.843
15.1556	0.838
15.1923	0.835
15.229	0.834
15.2658	0.834
15.3025	0.835
15.3392	0.838
15.376	0.839
