Infrared Spectrum: 2,4-Dimethyl-1-nitrobenzene
Formula: C 8 H 9 N O 2
CAS: 89-87-2
State: gas
Origin: EPA-IR VAPOR PHASE LIBRARY
1/CM	ABSORBANCE
501.5	0.000184
513.074	8.1e-05
524.648	0.000111
536.222	0.0002746
547.796	0.00035709
559.37	0.000578
570.944	0.0010644
582.518	0.001515
594.092	0.002865
605.666	0.006255
617.24	0.003635
628.814	0.0012817
640.388	0.0009746
651.962	0.0008671
663.536	0.0008233
675.11	0.001415
686.684	0.003045
698.258	0.002625
709.832	0.001835
721.406	0.003165
732.98	0.005135
744.554	0.009165
756.128	0.007365
767.702	0.003525
779.276	0.002315
790.85	0.002405
802.423	0.004615
813.997	0.013585
825.571	0.037355
837.145	0.040175
848.719	0.011465
860.293	0.004105
871.867	0.005035
883.441	0.002995
895.015	0.001535
906.589	0.001415
918.163	0.003225
929.737	0.005585
941.311	0.003345
952.885	0.001865
964.459	0.001405
976.033	0.0013155
987.607	0.0012538
999.181	0.001415
1010.76	0.001715
1022.33	0.001915
1033.9	0.002505
1045.48	0.002935
1057.05	0.002505
1068.63	0.002245
1080.2	0.002255
1091.77	0.001855
1103.35	0.001395
1114.92	0.001655
1126.49	0.001985
1138.07	0.002395
1149.64	0.004515
1161.22	0.004205
1172.79	0.002325
1184.36	0.002005
1195.94	0.002145
1207.51	0.002825
1219.09	0.003695
1230.66	0.006495
1242.23	0.007715
1253.81	0.004815
1265.38	0.004905
1276.96	0.005985
1288.53	0.007985
1300.1	0.010685
1311.68	0.011415
1323.25	0.012605
1334.83	0.029425
1346.4	0.087595
1357.97	0.101885
1369.55	0.035215
1381.12	0.018105
1392.7	0.014785
1404.27	0.009955
1415.84	0.008865
1427.42	0.011295
1438.99	0.013965
1450.57	0.014525
1462.14	0.012985
1473.71	0.014435
1485.29	0.022435
1496.86	0.029485
1508.44	0.041355
1520.01	0.073325
1531.58	0.113385
1543.16	0.102625
1554.73	0.062765
1566.31	0.044035
1577.88	0.034255
1589.45	0.031195
1601.03	0.027835
1612.6	0.025965
1624.18	0.016005
1635.75	0.006255
1647.32	0.003995
1658.9	0.002835
1670.47	0.001985
1682.05	0.001775
1693.62	0.001915
1705.19	0.001575
1716.77	0.0011639
1728.34	0.001317
1739.92	0.001545
1751.49	0.001365
1763.06	0.001425
1774.64	0.001605
1786.21	0.0010938
1797.79	0.0008124
1809.36	0.0008242
1820.93	0.0009892
1832.51	0.0008563
1844.08	0.0006125
1855.66	0.0006221
1867.23	0.0007002
1878.8	0.0009326
1890.38	0.001405
1901.95	0.001735
1913.53	0.001405
1925.1	0.000874
1936.67	0.0006582
1948.25	0.0006576
1959.82	0.0006325
1971.4	0.0005144
1982.97	0.0004828
1994.54	0.0005004
2006.12	0.0004844
2017.69	0.00042716
2029.27	0.000348368
2040.84	0.0003136
2052.41	0.0002973
2063.99	0.0002902
2075.56	0.00033815
2087.14	0.00040424
2098.71	0.00044488
2110.28	0.0004622
2121.86	0.00042443
2133.43	0.00036033
2145.01	0.00038741
2156.58	0.0004781
2168.15	0.0005004
2179.73	0.00042046
2191.3	0.000345553
2202.88	0.000350752
2214.45	0.00036154
2226.02	0.0004553
2237.6	0.0004741
2249.17	0.0004787
2260.74	0.00041672
2272.32	0.0003584
2283.89	0.00040544
2295.47	0.0005149
2307.04	0.000697
2318.61	0.0007224
2330.19	0.0005956
2341.76	0.0006055
2353.34	0.0007107
2364.91	0.0007526
2376.48	0.0007627
2388.06	0.0007846
2399.63	0.0008326
2411.21	0.000946
2422.78	0.0011051
2434.35	0.0011509
2445.93	0.0008976
2457.5	0.0007303
2469.08	0.000611
2480.65	0.000549
2492.22	0.0005309
2503.8	0.0005426
2515.37	0.0006646
2526.95	0.0007238
2538.52	0.0006635
2550.09	0.0006392
2561.67	0.0006118
2573.24	0.0005482
2584.82	0.0005311
2596.39	0.000544
2607.96	0.0006285
2619.54	0.0007239
2631.11	0.0007159
2642.69	0.0006367
2654.26	0.0006633
2665.83	0.0007545
2677.41	0.0008699
2688.98	0.001036
2700.56	0.0011093
2712.13	0.0009479
2723.7	0.0008484
2735.28	0.0011435
2746.85	0.001625
2758.43	0.001505
2770	0.0011385
2781.57	0.0010212
2793.15	0.0011201
2804.72	0.0013373
2816.3	0.001655
2827.87	0.002305
2839.44	0.003165
2851.02	0.004495
2862.59	0.007165
2874.17	0.009735
2885.74	0.009555
2897.31	0.008645
2908.89	0.008975
2920.46	0.011945
2932.04	0.018695
2943.61	0.019955
2955.18	0.014085
2966.76	0.009815
2978.33	0.010035
2989.91	0.011335
3001.48	0.010755
3013.05	0.010185
3024.63	0.011555
3036.2	0.012545
3047.78	0.012135
3059.35	0.009735
3070.92	0.006095
3082.5	0.004205
3094.07	0.002655
3105.65	0.001905
3117.22	0.001515
3128.79	0.0011922
3140.37	0.0010066
3151.94	0.0008012
3163.52	0.0007399
3175.09	0.000645
3186.66	0.0006293
3198.24	0.000523
3209.81	0.0005537
3221.39	0.0005096
3232.96	0.0004521
3244.53	0.00036576
3256.11	0.000349545
3267.68	0.00039188
3279.26	0.000333
3290.83	0.00036359
3302.4	0.0003758
3313.98	0.000302
3325.55	0.0002932
3337.13	0.000274
3348.7	0.0002927
3360.27	0.0002891
3371.85	0.000312
3383.42	0.0003136
3395	0.0003133
3406.57	0.0003212
3418.14	0.0002574
3429.72	0.0003124
3441.29	0.0002963
3452.86	0.0002687
3464.44	0.0003226
3476.01	0.0003269
3487.59	0.000323
3499.16	0.0003207
3510.73	0.0003097
3522.31	0.0003311
3533.88	0.0002597
3545.46	0.0003076
3557.03	0.0003131
3568.6	0.0002465
3580.18	0.0002765
3591.75	0.0002978
3603.33	0.000314
3614.9	0.0002546
3626.47	0.0002948
3638.05	0.000352893
3649.62	0.0002704
3661.2	0.0003057
3672.77	0.00033504
3684.34	0.0003333
3695.92	0.0002745
3707.49	0.000302
3719.07	0.00035622
3730.64	0.000324
3742.21	0.0002919
3753.79	0.0003749
3765.36	0.000350331
3776.94	0.0002961
3788.51	0.00039283
3800.08	0.00039814
3811.66	0.00039005
3823.23	0.000348163
3834.81	0.0003762
3846.38	0.00036707
3857.95	0.00035518
3869.53	0.00033971
3881.1	0.00041443
3892.68	0.00042447
3904.25	0.00039329
3915.82	0.000466
3927.4	0.00044325
3938.97	0.00038049
3950.55	0.0004852
3962.12	0.0004948
3973.69	0.0006345
3985.27	0.0006509
3996.84	0.0005223
