Infrared Spectrum: O-CHLOROBENZALDEHYDE
Formula: C7 H5 Cl O
CAS: 89-98-5
State: LIQUID
Melting point: 10-11.5 C
Class: COBLENTZ
Instrument: Not specified, most likely a prism, grating, or hybrid spectrometer.
Sampling: TRANSMISSION
Path length: 0.003 CM
Resolution: 4
Origin: WYANDOTTE CHEMICALS CORP., WYANDOTTE, MICHIGAN, USA
MICROMETERS	TRANSMITTANCE
2.034	0.998
2.07488	0.991
2.11575	0.998
2.15663	1
2.19751	0.996
2.23838	0.996
2.27926	0.993
2.32014	0.981
2.36101	0.981
2.40189	0.991
2.44277	0.996
2.48364	0.991
2.52452	0.989
2.56539	0.998
2.60627	0.993
2.64715	0.991
2.68802	0.991
2.7289	0.977
2.76978	0.964
2.81065	0.949
2.85153	0.947
2.89241	0.938
2.93328	0.918
2.97416	0.85
3.01504	0.877
3.05591	0.881
3.09679	0.87
3.13767	0.845
3.17854	0.809
3.21942	0.704
3.2603	0.689
3.30117	0.762
3.34205	0.811
3.38292	0.83
3.4238	0.745
3.46468	0.417
3.50555	0.587
3.54643	0.809
3.58731	0.821
3.62818	0.667
3.66906	0.845
3.70994	0.899
3.75081	0.904
3.79169	0.911
3.83257	0.928
3.87344	0.918
3.91432	0.93
3.9552	0.938
3.99607	0.933
4.03695	0.93
4.07783	0.928
4.1187	0.937
4.15958	0.928
4.20045	0.923
4.24133	0.926
4.28221	0.949
4.32308	0.959
4.36396	0.94
4.40484	0.93
4.44571	0.938
4.48659	0.937
4.52747	0.937
4.56834	0.945
4.60922	0.945
4.6501	0.937
4.69097	0.94
4.73185	0.949
4.77273	0.942
4.8136	0.933
4.85448	0.938
4.89536	0.935
4.93623	0.935
4.97711	0.906
5.01798	0.898
5.05886	0.896
5.09974	0.867
5.14061	0.869
5.18149	0.842
5.22237	0.872
5.26324	0.884
5.30412	0.896
5.345	0.889
5.38587	0.865
5.42675	0.876
5.46763	0.857
5.5085	0.818
5.54938	0.857
5.59026	0.869
5.63113	0.862
5.67201	0.806
5.71289	0.685
5.75376	0.526
5.79464	0.23
5.83551	0.042
5.87639	0.044
5.91727	0.088
5.95814	0.342
5.99902	0.426
6.0399	0.365
6.08077	0.617
6.12165	0.689
6.16253	0.684
6.2034	0.227
6.24428	0.095
6.28516	0.432
6.32603	0.342
6.36691	0.711
6.40779	0.794
6.44866	0.809
6.48954	0.823
6.53042	0.823
6.57129	0.835
6.61217	0.816
6.65304	0.76
6.69392	0.658
6.7348	0.519
6.77567	0.227
6.81655	0.363
6.85743	0.166
6.8983	0.098
6.93918	0.341
6.98006	0.572
7.02093	0.689
7.06181	0.626
7.10269	0.409
7.14356	0.181
7.18444	0.398
7.22532	0.711
7.26619	0.764
7.30707	0.779
7.34795	0.823
7.38882	0.835
7.4297	0.843
7.47057	0.848
7.51145	0.83
7.55233	0.813
7.5932	0.747
7.63408	0.701
7.67496	0.617
7.71583	0.529
7.75671	0.631
7.79759	0.551
7.83846	0.183
7.87934	0.049
7.92022	0.286
7.96109	0.512
8.00197	0.626
8.04285	0.691
8.08372	0.709
8.1246	0.702
8.16548	0.668
8.20635	0.58
8.24723	0.336
8.2881	0.078
8.32898	0.054
8.36986	0.078
8.41073	0.317
8.45161	0.546
8.49249	0.641
8.53336	0.646
8.57424	0.48
8.61512	0.558
8.65599	0.718
8.69687	0.73
8.73775	0.638
8.77862	0.561
8.8195	0.561
8.86038	0.57
8.90125	0.517
8.94213	0.514
8.98301	0.687
9.02388	0.77
9.06476	0.782
9.10563	0.786
9.14651	0.792
9.18739	0.782
9.22826	0.779
9.26914	0.747
9.31002	0.641
9.35089	0.534
9.39177	0.488
9.43265	0.144
9.47352	0.045
9.5144	0.271
9.55528	0.519
9.59615	0.47
9.63703	0.2
9.67791	0.536
9.71878	0.667
9.75966	0.747
9.80054	0.772
9.84141	0.775
9.88229	0.767
9.92316	0.736
9.96404	0.697
10.0049	0.743
10.0458	0.762
10.0867	0.758
10.1275	0.76
10.1684	0.777
10.2093	0.804
10.2502	0.821
10.2911	0.821
10.3319	0.811
10.3728	0.777
10.4137	0.731
10.4546	0.701
10.4954	0.718
10.5363	0.767
10.5772	0.813
10.6181	0.828
10.6589	0.833
10.6998	0.833
10.7407	0.83
10.7816	0.823
10.8224	0.825
10.8633	0.826
10.9042	0.831
10.9451	0.833
10.986	0.84
11.0268	0.838
11.0677	0.833
11.1086	0.83
11.1495	0.826
11.1903	0.821
11.2312	0.816
11.2721	0.801
11.313	0.78
11.3538	0.758
11.3947	0.73
11.4356	0.696
11.4765	0.672
11.5173	0.677
11.5582	0.704
11.5991	0.721
11.64	0.738
11.6809	0.73
11.7217	0.716
11.7626	0.682
11.8035	0.599
11.8444	0.522
11.8852	0.567
11.9261	0.599
11.967	0.561
12.0079	0.439
12.0487	0.273
12.0896	0.112
12.1305	0.054
12.1714	0.076
12.2122	0.196
12.2531	0.378
12.294	0.516
12.3349	0.614
12.3758	0.663
12.4166	0.694
12.4575	0.709
12.4984	0.714
12.5393	0.702
12.5801	0.677
12.621	0.662
12.6619	0.651
12.7028	0.634
12.7436	0.602
12.7845	0.548
12.8254	0.478
12.8663	0.371
12.9071	0.259
12.948	0.162
12.9889	0.105
13.0298	0.067
13.0707	0.054
13.1115	0.052
13.1524	0.05
13.1933	0.05
13.2342	0.05
13.275	0.061
13.3159	0.1
13.3568	0.19
13.3977	0.297
13.4385	0.402
13.4794	0.488
13.5203	0.543
13.5612	0.592
13.6021	0.626
13.6429	0.646
13.6838	0.655
13.7247	0.667
13.7656	0.658
13.8064	0.624
13.8473	0.57
13.8882	0.46
13.9291	0.314
13.9699	0.212
14.0108	0.186
14.0517	0.268
14.0926	0.393
14.1334	0.502
14.1743	0.578
14.2152	0.616
14.2561	0.631
14.297	0.641
14.3378	0.653
14.3787	0.657
14.4196	0.682
14.4605	0.692
14.5013	0.702
14.5422	0.704
14.5831	0.706
14.624	0.709
14.6648	0.709
14.7057	0.706
14.7466	0.702
14.7875	0.706
14.8283	0.713
14.8692	0.726
14.9101	0.74
14.951	0.753
14.9919	0.753
15.0327	0.748
15.0736	0.753
15.1145	0.764
15.1554	0.77
15.1962	0.765
15.2371	0.758
15.278	0.748
15.3189	0.74
15.3597	0.716
15.4006	0.701
15.4415	0.692
15.4824	0.692
15.5232	0.696
15.5641	0.701
15.605	0.694
15.6459	0.674
15.6868	0.643
15.7276	0.614
15.7685	0.584
15.8094	0.558
15.8503	0.555
15.8911	0.582
15.932	0.606
15.9729	0.631
