Infrared Spectrum: 1-(Bromomethyl)-2-methylbenzene
Formula: C 8 H 9 Br
CAS: 89-92-9
State: gas
Instrument: HP-GC/MS/IRD
Origin: NIST Mass Spectrometry Data Center
1/CM	ABSORBANCE
550	0.000325
562	1.8e-05
574	0.000451
586	0.002695
598	0.004771
610	0.008801
622	0.006406
634	0.001744
646	0.001072
658	0.000534
670	0.000671
682	0.000524
694	0.00064
706	0.002326
718	0.007094
730	0.006446
742	0.00572
754	0.007951
766	0.004469
778	0.000923
790	0.000224
802	0.000146
814	0.000252
826	0.001046
838	0.001568
850	0.000442
862	0.000475
874	0.000649
886	0.000393
898	0.000204
910	0.000154
922	0.00012
934	0.000216
946	0.000166
958	0.000118
970	0.000137
982	0.000199
994	0.000196
1006	0.000193
1018	0.000243
1030	0.00053
1042	0.000914
1054	0.000864
1066	0.000292
1078	0.000478
1090	0.000912
1102	0.00048
1114	0.000239
1126	0.000371
1138	0.00058
1150	0.00054
1162	0.000613
1174	0.001035
1186	0.002017
1198	0.00332
1210	0.008932
1222	0.008972
1234	0.00387
1246	0.001091
1258	0.000496
1270	0.000517
1282	0.0008
1294	0.00097
1306	0.000491
1318	0.000271
1330	0.000282
1342	0.000318
1354	0.000339
1366	0.000406
1378	0.000776
1390	0.001009
1402	0.00072
1414	0.000725
1426	0.001207
1438	0.002278
1450	0.003633
1462	0.004049
1474	0.003319
1486	0.003405
1498	0.003233
1510	0.00135
1522	0.000664
1534	0.0005
1546	0.000467
1558	0.000468
1570	0.000492
1582	0.000603
1594	0.000816
1606	0.000986
1618	0.000671
1630	0.000294
1642	0.000163
1654	0.000158
1666	0.000187
1678	0.000233
1690	0.000377
1702	0.000293
1714	0.0002
1726	0.000196
1738	0.000143
1750	0.000122
1762	0.000129
1774	0.000149
1786	0.000341
1798	0.00047
1810	0.000292
1822	0.000287
1834	0.000289
1846	0.00016
1858	0.00015
1870	0.000248
1882	0.000294
1894	0.000331
1906	0.000597
1918	0.000464
1930	0.0003
1942	0.000561
1954	0.000361
1966	0.000132
1978	0.000101
1990	5.5e-05
2002	5.4e-05
2014	6.8e-05
2026	4e-05
2038	5.6e-05
2050	7e-05
2062	4.2e-05
2074	1.3e-05
2086	2.3e-05
2098	1.9e-05
2110	1.5e-05
2122	3e-05
2134	2.8e-05
2146	2.3e-05
2158	3.1e-05
2170	2e-06
2182	2.8e-05
2194	4e-05
2206	7.1e-05
2218	5.1e-05
2230	4.6e-05
2242	6.4e-05
2254	4.9e-05
2266	8.3e-05
2278	7.4e-05
2290	9.4e-05
2302	0.000128
2314	0.000201
2326	0.000298
2338	0.00026
2350	0.000173
2362	0.000226
2374	0.000144
2386	0.000132
2398	0.000163
2410	0.00018
2422	0.000146
2434	0.000146
2446	0.000129
2458	0.000112
2470	0.000115
2482	0.000103
2494	0.000118
2506	0.00015
2518	0.00013
2530	0.000131
2542	0.000111
2554	0.000119
2566	0.000154
2578	0.000142
2590	0.000148
2602	0.000158
2614	0.00019
2626	0.000216
2638	0.000186
2650	0.000239
2662	0.000252
2674	0.000235
2686	0.000243
2698	0.000222
2710	0.000241
2722	0.000247
2734	0.000277
2746	0.000384
2758	0.000349
2770	0.000284
2782	0.000256
2794	0.000325
2806	0.000351
2818	0.000418
2830	0.00052
2842	0.000701
2854	0.001058
2866	0.001636
2878	0.002222
2890	0.002257
2902	0.002054
2914	0.002343
2926	0.003231
2938	0.00373
2950	0.003307
2962	0.003228
2974	0.003934
2986	0.004652
2998	0.003543
3010	0.003319
3022	0.005803
3034	0.005936
3046	0.004288
3058	0.005137
3070	0.006715
3082	0.005753
3094	0.002646
3106	0.001569
3118	0.000982
3130	0.000602
3142	0.00047
3154	0.000464
3166	0.0004
3178	0.000316
3190	0.000205
3202	0.000189
3214	0.000199
3226	0.000213
3238	0.000175
3250	0.000162
3262	0.000151
3274	0.000159
3286	0.000133
3298	0.000169
3310	0.000138
3322	0.000165
3334	0.000167
3346	0.000126
3358	8.5e-05
3370	0.00011
3382	0.000173
3394	0.00014
3406	0.000103
3418	0.000122
3430	0.000142
3442	0.000111
3454	0.000124
3466	9.1e-05
3478	9.3e-05
3490	9.4e-05
3502	2.6e-05
3514	3.8e-05
3526	0.00011
3538	9.4e-05
3550	0.000103
3562	6e-05
3574	7.5e-05
3586	0.000188
3598	0.00015
3610	0.000162
3622	0.000129
3634	6.3e-05
3646	7.2e-05
3658	0.000105
3670	0.000131
3682	5.6e-05
3694	6.7e-05
3706	5.3e-05
3718	9.2e-05
3730	0.000105
3742	0.000115
3754	0.000108
3766	6.6e-05
3778	0.0001
3790	8.3e-05
3802	0.00015
3814	0.000131
3826	0.00019
3838	0.000182
