Infrared Spectrum: BENZYLAMINE, o-METHYL-
Formula: C8 H11 N
CAS: 89-93-0
State: SOLUTION (10% CCl4 FOR 3800-400) VS SOLVENT
Class: COBLENTZ III
Instrument: BECKMAN IR-9 (GRATING)
Instrument parameters: ORDER CHANGES: 670, 1200, 2000 CM^-^1
Sampling: TRANSMISSION
Path length: 0.011 CM
Resolution: 2
Origin: DOW CHEMICAL COMPANY
1/CM	TRANSMITTANCE
404	0.8008
413	0.8058
422	0.8074
431	0.7404
440	0.6558
449	0.6868
458	0.633
467	0.7537
476	0.8026
485	0.8041
494	0.7894
503	0.7357
512	0.7534
521	0.7618
530	0.7875
539	0.8018
548	0.7907
557	0.7746
566	0.8053
575	0.8242
584	0.8225
593	0.7631
602	0.6222
611	0.7839
620	0.8273
629	0.8533
638	0.8514
647	0.8448
656	0.8453
665	0.8451
674	0.8398
683	0.8299
692	0.8174
701	0.7789
710	0.7488
719	0.6624
728	0.5489
737	0.2806
746	0.2691
755	0.2671
764	0.262
773	0.2619
782	0.2608
791	0.2591
800	0.2591
809	0.2593
818	0.2634
827	0.3195
836	0.3789
845	0.3741
854	0.3807
863	0.3823
872	0.4147
881	0.434
890	0.4696
899	0.5423
908	0.6243
917	0.6451
926	0.689
935	0.6915
944	0.6421
953	0.6535
962	0.744
971	0.719
980	0.7298
989	0.7562
998	0.753
1007	0.7806
1016	0.7444
1025	0.6375
1034	0.5803
1043	0.5737
1052	0.514
1061	0.64
1070	0.7246
1079	0.7892
1088	0.8275
1097	0.8239
1106	0.8128
1115	0.8262
1124	0.8401
1133	0.8316
1142	0.809
1151	0.773
1160	0.7628
1169	0.7921
1178	0.7921
1187	0.7582
1196	0.8176
1205	0.8438
1214	0.8387
1223	0.7994
1232	0.8143
1241	0.847
1250	0.8543
1259	0.8442
1268	0.8271
1277	0.7846
1286	0.7667
1295	0.7626
1304	0.7906
1313	0.7906
1322	0.7868
1331	0.7706
1340	0.7439
1349	0.7239
1358	0.7288
1367	0.7292
1376	0.6265
1385	0.541
1394	0.5684
1403	0.7193
1412	0.7288
1421	0.7137
1430	0.671
1439	0.561
1448	0.4627
1457	0.4104
1466	0.2483
1475	0.426
1484	0.475
1493	0.375
1502	0.576
1511	0.7022
1520	0.7253
1529	0.7235
1538	0.7291
1547	0.7475
1556	0.776
1565	0.7643
1574	0.7156
1583	0.6605
1592	0.6224
1601	0.5662
1610	0.4945
1619	0.5257
1628	0.5354
1637	0.5648
1646	0.5787
1655	0.6277
1664	0.674
1673	0.7142
1682	0.7435
1691	0.7633
1700	0.7853
1709	0.8019
1718	0.8328
1727	0.8478
1736	0.8504
1745	0.8531
1754	0.8596
1763	0.8653
1772	0.8641
1781	0.8605
1790	0.8542
1799	0.8368
1808	0.8304
1817	0.8408
1826	0.8451
1835	0.8389
1844	0.8303
1853	0.8378
1862	0.8458
1871	0.8438
1880	0.8392
1889	0.8388
1898	0.8352
1907	0.8189
1916	0.7854
1925	0.8165
1934	0.8271
1943	0.826
1952	0.7896
1961	0.8135
1970	0.8301
1979	0.8311
1988	0.831
1997	0.8304
2006	0.8293
2015	0.829
2024	0.8288
2033	0.8286
2042	0.8289
2051	0.8292
2060	0.8295
2069	0.8298
2078	0.8301
2087	0.8304
2096	0.8307
2105	0.831
2114	0.8312
2123	0.8313
2132	0.8314
2141	0.8313
2150	0.8308
2159	0.8302
2168	0.8297
2177	0.8292
2186	0.8286
2195	0.8277
2204	0.8268
2213	0.8259
2222	0.8249
2231	0.8234
2240	0.822
2249	0.8205
2258	0.8191
2267	0.8175
2276	0.816
2285	0.814
2294	0.8117
2303	0.8085
2312	0.8045
2321	0.7997
2330	0.7926
2339	0.7885
2348	0.7861
2357	0.7849
2366	0.7841
2375	0.7826
2384	0.7808
2393	0.7782
2402	0.7738
2411	0.7646
2420	0.753
2429	0.7394
2438	0.7378
2447	0.7438
2456	0.7497
2465	0.7464
2474	0.7385
2483	0.7378
2492	0.7425
2501	0.7422
2510	0.7341
2519	0.7332
2528	0.7331
2537	0.7258
2546	0.7251
2555	0.728
2564	0.7214
2573	0.7118
2582	0.7161
2591	0.7168
2600	0.7121
2609	0.7058
2618	0.7017
2627	0.6967
2636	0.689
2645	0.6794
2654	0.6695
2663	0.6605
2672	0.6517
2681	0.6424
2690	0.6316
2699	0.6192
2708	0.6048
2717	0.5889
2726	0.57
2735	0.5486
2744	0.5196
2753	0.5115
2762	0.5049
2771	0.496
2780	0.4827
2789	0.4685
2798	0.4554
2807	0.4523
2816	0.4547
2825	0.4531
2834	0.4451
2843	0.433
2852	0.4005
2861	0.3608
2870	0.3157
2879	0.2819
2888	0.271
2897	0.3004
2906	0.3174
2915	0.309
2924	0.2761
2933	0.2568
2942	0.2457
2951	0.2354
2960	0.2275
2969	0.2326
2978	0.2517
2987	0.2617
2996	0.3154
3005	0.3664
3014	0.3805
3023	0.2963
3032	0.2777
3041	0.3282
3050	0.3908
3059	0.4026
3068	0.4039
3077	0.3854
3086	0.407
3095	0.5372
3104	0.5703
3113	0.5728
3122	0.6275
3131	0.645
3140	0.6536
3149	0.6608
3158	0.6626
3167	0.6632
3176	0.6631
3185	0.663
3194	0.6626
3203	0.6624
3212	0.6621
3221	0.6619
3230	0.6625
3239	0.6634
3248	0.6634
3257	0.6593
3266	0.6534
3275	0.6451
3284	0.6354
3293	0.6255
3302	0.6134
3311	0.6025
3320	0.5969
3329	0.5948
3338	0.5877
3347	0.5831
3356	0.5806
3365	0.5752
3374	0.5627
3383	0.5462
3392	0.5269
3401	0.5142
3410	0.5156
3419	0.5318
3428	0.5504
3437	0.56
3446	0.5632
3455	0.565
3464	0.5676
3473	0.5734
3482	0.5804
3491	0.5888
3500	0.5986
3509	0.6102
3518	0.6238
3527	0.6373
3536	0.6495
3545	0.6625
3554	0.6762
3563	0.6875
3572	0.6992
3581	0.7115
3590	0.723
3599	0.7342
3608	0.7442
3617	0.7538
3626	0.7625
3635	0.7698
3644	0.7765
3653	0.7828
3662	0.7874
3671	0.7886
3680	0.7845
3689	0.7791
3698	0.7919
3707	0.8032
3716	0.8101
3725	0.8142
3734	0.8155
3743	0.8156
3752	0.8151
3761	0.8145
3770	0.8142
3779	0.814
3788	0.8137
3797	0.8134
