Infrared Spectrum: o-Chloroethylbenzene
Formula: C 8 H 9 Cl
CAS: 89-96-3
State: gas
Instrument: HP-GC/MS/IRD
Origin: NIST Mass Spectrometry Data Center
1/CM	ABSORBANCE
550	0.0018275
562	0.0048625
574	0.0039175
586	0.00094
598	0.0002875
610	6.25e-05
622	0.0002275
634	0.00095
646	0.0025025
658	0.0065625
670	0.0109175
682	0.01357
694	0.02103
706	0.020335
718	0.023725
730	0.021605
742	0.014715
754	0.0121075
766	0.0063025
778	0.0022825
790	0.0012425
802	0.0012625
814	0.00176
826	0.0017325
838	0.000975
850	0.00057
862	0.0004
874	0.0006775
886	0.0011775
898	0.001385
910	0.0018625
922	0.002275
934	0.0018625
946	0.00148
958	0.00095
970	0.00054
982	0.0003725
994	0.00064
1006	0.0012575
1018	0.00208
1030	0.0047
1042	0.0022925
1054	0.0009375
1066	0.001605
1078	0.0015925
1090	0.0008875
1102	0.0004975
1114	0.00035
1126	0.000365
1138	0.000495
1150	0.0004625
1162	0.0002975
1174	0.0003725
1186	0.000725
1198	0.0009925
1210	0.0006375
1222	0.0007275
1234	0.0017975
1246	0.0041475
1258	0.003265
1270	0.001755
1282	0.003155
1294	0.0054475
1306	0.00502
1318	0.00443
1330	0.005005
1342	0.0028225
1354	0.001045
1366	0.0006575
1378	0.00059
1390	0.00058
1402	0.0006225
1414	0.000955
1426	0.0020775
1438	0.0049875
1450	0.00733
1462	0.00561
1474	0.002985
1486	0.0036625
1498	0.0082275
1510	0.0035825
1522	0.0011225
1534	0.00075
1546	0.000695
1558	0.0010725
1570	0.0010675
1582	0.0013525
1594	0.00272
1606	0.0036625
1618	0.001575
1630	0.0005275
1642	0.0004575
1654	0.000645
1666	0.0003875
1678	0.000285
1690	0.000205
1702	0.000445
1714	0.0004425
1726	0.0004075
1738	0.0005925
1750	0.00061
1762	0.0004175
1774	0.0005375
1786	0.0009625
1798	0.0013575
1810	0.0006775
1822	0.000415
1834	0.0003675
1846	0.0005625
1858	0.00072
1870	0.0008775
1882	0.0007825
1894	0.00046
1906	0.000305
1918	0.0004625
1930	0.0008525
1942	0.001165
1954	0.0011925
1966	0.000565
1978	0.0001425
1990	9.5e-05
2002	8.5e-05
2014	0.0001
2026	0.00011
2038	0.0001175
2050	0.0001075
2062	9.5e-05
2074	4.75e-05
2086	5.25e-05
2098	5.25e-05
2110	6.75e-05
2122	6.5e-05
2134	3e-05
2146	3.5e-05
2158	3.5e-05
2170	6.75e-05
2182	6.75e-05
2194	6e-05
2206	0.00013
2218	0.0001225
2230	7.5e-05
2242	5.75e-05
2254	8.25e-05
2266	7e-05
2278	4.75e-05
2290	8.25e-05
2302	6.75e-05
2314	0.0002225
2326	0.0002325
2338	0.0001875
2350	0.000195
2362	0.000145
2374	9.5e-05
2386	6.25e-05
2398	7.5e-05
2410	8.75e-05
2422	7e-05
2434	9e-05
2446	9.25e-05
2458	0.0001
2470	8.5e-05
2482	5e-06
2494	3.5e-05
2506	5e-06
2518	4.5e-05
2530	5e-05
2542	3.75e-05
2554	5.5e-05
2566	2.75e-05
2578	5.75e-05
2590	9.25e-05
2602	0.00012
2614	0.000115
2626	0.000115
2638	0.00015
2650	0.0001725
2662	9.25e-05
2674	9e-05
2686	0.0001475
2698	0.000155
2710	9.25e-05
2722	5e-05
2734	0.0001125
2746	9.75e-05
2758	9e-05
2770	0.0002025
2782	0.0003725
2794	0.0003875
2806	0.00033
2818	0.0004375
2830	0.000725
2842	0.001325
2854	0.0019575
2866	0.0025075
2878	0.00324
2890	0.003095
2902	0.00382
2914	0.004945
2926	0.0046075
2938	0.00524
2950	0.00768
2962	0.0106675
2974	0.009795
2986	0.005825
2998	0.00722
3010	0.0078925
3022	0.0101275
3034	0.01607
3046	0.012585
3058	0.0091725
3070	0.0144075
3082	0.012165
3094	0.0074675
3106	0.00494
3118	0.002595
3130	0.000905
3142	0.000445
3154	0.000355
3166	0.0003175
3178	0.00025
3190	0.00016
3202	8.25e-05
3214	9e-05
3226	0.0001425
3238	8.75e-05
3250	5.25e-05
3262	4.5e-05
3274	3.75e-05
3286	3.25e-05
3298	6.75e-05
3310	8.75e-05
3322	5.75e-05
3334	6.75e-05
3346	0.0001025
3358	0
3370	5e-06
3382	8.5e-05
3394	8.5e-05
3406	8e-05
3418	0.0001
3430	7e-05
3442	8.5e-05
3454	4.75e-05
3466	7.75e-05
3478	3.25e-05
3490	0
3502	0.00011
3514	2.75e-05
3526	0.0001525
3538	6.75e-05
3550	0.00014
3562	0.0001675
3574	6.75e-05
3586	0.0002025
3598	0.0001
3610	0.0001875
3622	0.0001175
3634	0.0001475
3646	0.0003425
3658	0.000215
3670	0.0003325
3682	0.00014
3694	0.00013
3706	0.000165
3718	0.000135
3730	0.000205
3742	0.0003625
3754	0.0002275
3766	0.0001325
3778	7e-05
3790	0.0001025
3802	0.0002225
3814	0.0001525
3826	0.0001875
3838	0.000265
