Infrared Spectrum: 4-Isopropylphenyl isothiocyanate
Formula: C 10 H 11 N S
CAS: 89007-45-4
State: gas
Origin: EPA-IR VAPOR PHASE LIBRARY
1/CM	ABSORBANCE
549.8	0.018276
559.445	0.013236
569.09	0.009576
578.734	0.007096
588.379	0.004746
598.024	0.002946
607.669	0.002656
617.313	0.002346
626.958	0.001656
636.603	0.001556
646.248	0.001746
655.893	0.0014515
665.537	0.001616
675.182	0.002146
684.827	0.003006
694.472	0.002636
704.116	0.002436
713.761	0.002576
723.406	0.003446
733.051	0.003686
742.695	0.005016
752.34	0.013986
761.985	0.011476
771.63	0.003366
781.275	0.002176
790.919	0.002726
800.564	0.004336
810.209	0.008986
819.854	0.021356
829.498	0.036736
839.143	0.028376
848.788	0.012086
858.433	0.005026
868.078	0.003626
877.722	0.002736
887.367	0.003156
897.012	0.005876
906.657	0.010996
916.301	0.014066
925.946	0.017756
935.591	0.022736
945.236	0.023696
954.88	0.016236
964.525	0.008326
974.17	0.004736
983.815	0.003146
993.46	0.002536
1003.1	0.002156
1012.75	0.006136
1022.39	0.006026
1032.04	0.001966
1041.68	0.004246
1051.33	0.015206
1060.97	0.013846
1070.62	0.005996
1080.26	0.004666
1089.91	0.004706
1099.55	0.007856
1109.2	0.007096
1118.84	0.003476
1128.49	0.003056
1138.13	0.003536
1147.78	0.002536
1157.42	0.001252
1167.07	0.0010837
1176.71	0.001606
1186.36	0.0012589
1196	0.0010692
1205.64	0.001596
1215.29	0.002076
1224.93	0.002696
1234.58	0.004626
1244.22	0.010006
1253.87	0.012776
1263.51	0.008206
1273.16	0.007086
1282.8	0.005226
1292.45	0.006746
1302.09	0.008236
1311.74	0.004726
1321.38	0.004876
1331.03	0.005546
1340.67	0.005876
1350.32	0.006226
1359.96	0.006376
1369.61	0.006946
1379.25	0.006866
1388.9	0.007256
1398.54	0.005506
1408.18	0.004626
1417.83	0.004846
1427.47	0.004806
1437.12	0.004896
1446.76	0.006396
1456.41	0.009326
1466.05	0.013076
1475.7	0.016546
1485.34	0.016116
1494.99	0.029736
1504.63	0.078756
1514.28	0.043816
1523.92	0.008786
1533.57	0.005536
1543.21	0.005086
1552.86	0.005186
1562.5	0.006116
1572.15	0.007346
1581.79	0.007386
1591.44	0.010886
1601.08	0.017136
1610.73	0.010216
1620.37	0.005236
1630.01	0.004496
1639.66	0.005076
1649.3	0.004666
1658.95	0.003486
1668.59	0.002496
1678.24	0.001826
1687.88	0.001576
1697.53	0.001556
1707.17	0.001556
1716.82	0.001696
1726.46	0.001796
1736.11	0.002006
1745.75	0.002096
1755.4	0.002556
1765.04	0.003306
1774.69	0.003216
1784.33	0.002746
1793.98	0.002876
1803.62	0.002906
1813.27	0.003056
1822.91	0.003306
1832.55	0.003616
1842.2	0.004266
1851.84	0.005406
1861.49	0.006626
1871.13	0.007796
1880.78	0.009266
1890.42	0.010256
1900.07	0.010326
1909.71	0.010826
1919.36	0.012886
1929	0.016966
1938.65	0.023286
1948.29	0.032246
1957.94	0.044076
1967.58	0.059766
1977.23	0.080706
1986.87	0.107196
1996.52	0.140676
2006.16	0.186236
2015.81	0.242556
2025.45	0.294566
2035.1	0.340016
2044.74	0.395446
2054.38	0.395406
2064.03	0.274686
2073.67	0.189456
2083.32	0.185886
2092.96	0.242086
2102.61	0.281866
2112.25	0.212556
2121.9	0.127446
2131.54	0.087486
2141.19	0.075576
2150.83	0.077336
2160.48	0.073166
2170.12	0.055936
2179.77	0.040826
2189.41	0.033956
2199.06	0.028736
2208.7	0.020936
2218.35	0.014626
2227.99	0.010606
2237.64	0.007746
2247.28	0.005616
2256.92	0.004436
2266.57	0.003796
2276.21	0.003156
2285.86	0.002666
2295.5	0.002516
2305.15	0.002456
2314.79	0.002416
2324.44	0.002296
2334.08	0.002296
2343.73	0.002306
2353.37	0.002286
2363.02	0.002176
2372.66	0.002226
2382.31	0.002336
2391.95	0.002486
2401.6	0.002466
2411.24	0.002516
2420.89	0.002686
2430.53	0.002726
2440.18	0.002456
2449.82	0.002486
2459.47	0.002646
2469.11	0.002986
2478.75	0.003276
2488.4	0.003636
2498.04	0.003936
2507.69	0.003526
2517.33	0.003296
2526.98	0.003346
2536.62	0.003246
2546.27	0.003346
2555.91	0.003776
2565.56	0.004276
2575.2	0.004386
2584.85	0.004296
2594.49	0.003886
2604.14	0.003356
2613.78	0.003026
2623.43	0.003006
2633.07	0.003116
2642.72	0.003326
2652.36	0.003426
2662.01	0.003806
2671.65	0.004266
2681.29	0.004486
2690.94	0.004156
2700.58	0.003556
2710.23	0.003106
2719.87	0.002796
2729.52	0.002796
2739.16	0.002726
2748.81	0.002496
2758.45	0.002286
2768.1	0.002506
2777.74	0.002446
2787.39	0.002496
2797.03	0.002796
2806.68	0.003136
2816.32	0.003186
2825.97	0.003046
2835.61	0.003176
2845.26	0.003816
2854.9	0.005436
2864.55	0.008756
2874.19	0.015486
2883.84	0.021086
2893.48	0.019716
2903.12	0.020106
2912.77	0.020806
2922.41	0.021056
2932.06	0.024876
2941.7	0.029606
2951.35	0.029846
2960.99	0.052536
2970.64	0.100046
2980.28	0.055006
2989.93	0.020446
2999.57	0.012146
3009.22	0.008696
3018.86	0.007286
3028.51	0.010826
3038.15	0.014426
3047.8	0.009316
3057.44	0.007056
3067.09	0.006136
3076.73	0.006156
3086.38	0.006356
3096.02	0.005906
3105.67	0.004716
3115.31	0.003576
3124.95	0.002516
3134.6	0.001596
3144.24	0.0012755
3153.89	0.0013159
3163.53	0.0012326
3173.18	0.0011472
3182.82	0.0011336
3192.47	0.0010624
3202.11	0.001033
3211.76	0.0008696
3221.4	0.0007008
3231.05	0.0006397
3240.69	0.000371
3250.34	0.000324
3259.98	0.000218
3269.63	0.000264
3279.27	2.9e-05
3288.92	0.000103
3298.56	0.000148
3308.21	0.000199
3317.85	1.1e-05
3327.49	0.000139
3337.14	0.000182
3346.78	0.000316
3356.43	0.000345
3366.07	0.000201
3375.72	0.0003815
3385.36	0.000274
3395.01	0.000327
3404.65	0.000101
3414.3	0.000286
3423.94	0.00025
3433.59	0.000165
3443.23	0.000199
3452.88	0.000224
3462.52	0.000301
3472.17	0.000223
3481.81	0.000296
3491.46	0.000191
3501.1	0.000181
3510.75	0.000312
3520.39	0.000245
3530.04	0.000166
3539.68	0.000264
3549.32	0.000207
3558.97	5e-06
3568.61	0.000163
3578.26	0.000266
3587.9	0.000171
3597.55	0.000163
3607.19	0.000235
3616.84	0.000171
3626.48	0.000166
3636.13	0.000356
3645.77	0.00017
3655.42	0.000446
3665.06	0.00037
3674.71	0.000361
3684.35	0.000365
3694	0.0003949
3703.64	0.000293
3713.29	0.000313
3722.93	0.000271
3732.58	0.000297
3742.22	0.000357
3751.86	0.000318
3761.51	0.000358
3771.15	0.0004419
3780.8	0.000293
3790.44	0.000371
3800.09	0.000338
3809.73	0.00046618
3819.38	0.00051205
3829.02	0.0006452
3838.67	0.0006462
3848.31	0.0006018
3857.96	0.0006391
3867.6	0.0006894
3877.25	0.0007049
3886.89	0.0008295
3896.54	0.0006784
3906.18	0.0006857
3915.83	0.000887
3925.47	0.0009253
3935.12	0.0009021
3944.76	0.0011641
3954.41	0.001096
3964.05	0.0013544
3973.69	0.0014721
3983.34	0.001566
3992.98	0.001706
