Infrared Spectrum: 3-Methylbenzenamine, N,N-diethyl-, hydrochloride
Formula: C11 H18 Cl N
CAS: 89074-92-0
State: SOLID (KBr DISC, 0.8% WT.)
Class: COBLENTZ III
Instrument: PERKIN-ELMER 157
Sampling: TRANSMISSION
Resolution: 2
Origin: BRITISH PETROLEUM CO. LTD., ENGLAND
1/CM	TRANSMITTANCE
668	0.9009
677	0.8795
686	0.8007
695	0.3365
704	0.245
713	0.8354
722	0.7854
731	0.8115
740	0.853
749	0.8435
758	0.8313
767	0.8059
776	0.7526
785	0.3873
794	0.1691
803	0.5803
812	0.6995
821	0.3135
830	0.6601
839	0.7105
848	0.4091
857	0.631
866	0.8114
875	0.8163
884	0.8118
893	0.6646
902	0.7515
911	0.7633
920	0.6304
929	0.7493
938	0.6318
947	0.7439
956	0.8047
965	0.7918
974	0.7645
983	0.7136
992	0.6853
1001	0.562
1010	0.4427
1019	0.1693
1028	0.0673
1037	0.4548
1046	0.574
1055	0.6668
1064	0.6571
1073	0.652
1082	0.6988
1091	0.4544
1100	0.4706
1109	0.2846
1118	0.6163
1127	0.4702
1136	0.7392
1145	0.7366
1154	0.6559
1163	0.598
1172	0.39
1181	0.5596
1190	0.7803
1199	0.7847
1208	0.784
1217	0.7823
1226	0.7616
1235	0.5967
1244	0.749
1253	0.7661
1262	0.759
1271	0.5883
1280	0.6171
1289	0.649
1298	0.7409
1307	0.7149
1316	0.6089
1325	0.6088
1334	0.6655
1343	0.5917
1352	0.4959
1361	0.5446
1370	0.2983
1379	0.4245
1388	0.3604
1397	0.3335
1406	0.3106
1415	0.1775
1424	0.4385
1433	0.4465
1442	0.3041
1451	0.1526
1460	0.2094
1469	0.1247
1478	0.0809
1487	0.2355
1496	0.3525
1505	0.3621
1514	0.3726
1523	0.5439
1532	0.6163
1541	0.6653
1550	0.676
1559	0.6754
1568	0.6707
1577	0.656
1586	0.6293
1595	0.4437
1604	0.2954
1613	0.4035
1622	0.3468
1631	0.6241
1640	0.6932
1649	0.7386
1658	0.7545
1667	0.7676
1676	0.7896
1685	0.7903
1694	0.7909
1703	0.7909
1712	0.7908
1721	0.7906
1730	0.791
1739	0.8114
1748	0.842
1757	0.8432
1766	0.8429
1775	0.8365
1784	0.8361
1793	0.8554
1802	0.855
1811	0.8454
1820	0.8358
1829	0.8049
1838	0.8048
1847	0.8339
1856	0.8426
1865	0.8266
1874	0.8069
1883	0.8056
1892	0.8088
1901	0.8169
1910	0.8098
1919	0.7983
1928	0.7935
1937	0.8301
1946	0.8365
1955	0.8255
1964	0.8024
1973	0.795
1982	0.8177
1991	0.8365
2000	0.84
2009	0.844
2018	0.8445
2027	0.8446
2036	0.8447
2045	0.8445
2054	0.8441
2063	0.843
2072	0.8359
2081	0.8295
2090	0.8262
2099	0.8235
2108	0.8218
2117	0.8209
2126	0.8147
2135	0.8071
2144	0.8055
2153	0.8061
2162	0.8058
2171	0.8013
2180	0.792
2189	0.7825
2198	0.7716
2207	0.7651
2216	0.7635
2225	0.7615
2234	0.7431
2243	0.732
2252	0.7257
2261	0.7197
2270	0.7157
2279	0.704
2288	0.6924
2297	0.6863
2306	0.6756
2315	0.6608
2324	0.6389
2333	0.5936
2342	0.5472
2351	0.5194
2360	0.4919
2369	0.4738
2378	0.4719
2387	0.4698
2396	0.4204
2405	0.3525
2414	0.3041
2423	0.2603
2432	0.23
2441	0.2143
2450	0.1853
2459	0.1466
2468	0.0872
2477	0.0526
2486	0.0697
2495	0.098
2504	0.107
2513	0.0824
2522	0.0565
2531	0.0453
2540	0.0417
2549	0.0413
2558	0.0401
2567	0.0321
2576	0.017
2585	0.0169
2594	0.017
2603	0.0177
2612	0.0185
2621	0.0195
2630	0.0235
2639	0.0363
2648	0.0507
2657	0.1055
2666	0.126
2675	0.129
2684	0.1301
2693	0.1224
2702	0.111
2711	0.1222
2720	0.1537
2729	0.1851
2738	0.2162
2747	0.2412
2756	0.2562
2765	0.2826
2774	0.3667
2783	0.3822
2792	0.3945
2801	0.3942
2810	0.3457
2819	0.2672
2828	0.1892
2837	0.1308
2846	0.1267
2855	0.1271
2864	0.1276
2873	0.131
2882	0.1371
2891	0.1445
2900	0.1518
2909	0.1569
2918	0.1596
2927	0.1733
2936	0.1912
2945	0.1983
2954	0.1791
2963	0.158
2972	0.1433
2981	0.1626
2990	0.2279
2999	0.2797
3008	0.2806
3017	0.2718
3026	0.2657
3035	0.2999
3044	0.3749
3053	0.449
3062	0.521
3071	0.5791
3080	0.6069
3089	0.6222
3098	0.6373
3107	0.6567
3116	0.6644
3125	0.6661
3134	0.6661
3143	0.6656
3152	0.6632
3161	0.6593
3170	0.6548
3179	0.6499
3188	0.6441
3197	0.6386
3206	0.6334
3215	0.6279
3224	0.6219
3233	0.6116
3242	0.6035
3251	0.5961
3260	0.5885
3269	0.5802
3278	0.5719
3287	0.5658
3296	0.5572
3305	0.547
3314	0.5363
3323	0.524
3332	0.5037
3341	0.481
3350	0.4565
3359	0.4331
3368	0.4269
3377	0.4237
3386	0.4195
3395	0.412
3404	0.4078
3413	0.4065
3422	0.4067
3431	0.409
3440	0.4161
3449	0.4195
3458	0.4213
3467	0.4224
3476	0.4287
3485	0.4368
3494	0.4522
3503	0.4796
3512	0.4992
3521	0.5149
3530	0.5281
3539	0.5429
3548	0.5561
3557	0.5672
3566	0.5847
3575	0.6018
3584	0.6291
3593	0.6567
3602	0.6841
3611	0.7114
3620	0.7379
3629	0.7558
3638	0.7697
3647	0.774
3656	0.7772
3665	0.7798
3674	0.7817
3683	0.7828
3692	0.784
3701	0.7845
3710	0.7848
3719	0.7845
3728	0.7841
3737	0.7831
3746	0.7819
3755	0.781
3764	0.7803
3773	0.782
3782	0.7829
3791	0.7832
3800	0.783
3809	0.7829
3818	0.7826
3827	0.7817
3836	0.7805
3845	0.7783
3854	0.7757
3863	0.7732
3872	0.7707
3881	0.7681
3890	0.7655
3899	0.763
3908	0.7615
3917	0.7602
3926	0.759
3935	0.7582
3944	0.7574
3953	0.7569
3962	0.7567
3971	0.7566
3980	0.7565
3989	0.7563
3998	0.7562
