Infrared Spectrum: N,N'-BIS(CHLOROACETYL) HYDRAZINE
Formula: C4 H6 N2 O2 Cl2
CAS: 89124-06-1
State: SOLID(MINERAL OIL MULL)
Melting point: 168 C
Class: COBLENTZ
Instrument: Not specified, most likely a prism, grating, or hybrid spectrometer.
Sampling: TRANSMISSION
Resolution: 4
Origin: ARTHUR D. LITTLE, INC.
1/CM	TRANSMITTANCE
649.66	0.282
657.823	0.315
665.987	0.375
674.15	0.405
682.313	0.443
690.476	0.488
698.64	0.541
706.803	0.56
714.966	0.556
723.129	0.602
731.293	0.647
739.456	0.659
747.619	0.67
755.782	0.668
763.946	0.657
772.109	0.631
780.272	0.552
788.436	0.395
796.599	0.21
804.762	0.397
812.925	0.71
821.089	0.772
829.252	0.78
837.415	0.783
845.578	0.782
853.742	0.779
861.905	0.778
870.068	0.775
878.231	0.77
886.395	0.765
894.558	0.761
902.721	0.751
910.885	0.734
919.048	0.702
927.211	0.594
935.374	0.572
943.538	0.321
951.701	0.614
959.864	0.717
968.027	0.73
976.191	0.733
984.354	0.733
992.517	0.734
1000.68	0.733
1008.84	0.731
1017.01	0.731
1025.17	0.73
1033.33	0.729
1041.5	0.727
1049.66	0.721
1057.82	0.71
1065.99	0.703
1074.15	0.691
1082.31	0.681
1090.48	0.663
1098.64	0.636
1106.8	0.621
1114.97	0.613
1123.13	0.576
1131.29	0.523
1139.46	0.53
1147.62	0.517
1155.78	0.468
1163.95	0.375
1172.11	0.251
1180.27	0.224
1188.44	0.499
1196.6	0.585
1204.76	0.559
1212.93	0.542
1221.09	0.497
1229.25	0.444
1237.42	0.368
1245.58	0.27
1253.74	0.243
1261.9	0.37
1270.07	0.549
1278.23	0.556
1286.39	0.553
1294.56	0.578
1302.72	0.572
1310.88	0.564
1319.05	0.556
1327.21	0.534
1335.37	0.504
1343.54	0.495
1351.7	0.502
1359.86	0.511
1368.03	0.523
1376.19	0.525
1384.35	0.521
1392.52	0.517
1400.68	0.506
1408.84	0.472
1417.01	0.466
1425.17	0.5
1433.33	0.48
1441.5	0.413
1449.66	0.344
1457.82	0.277
1465.99	0.272
1474.15	0.266
1482.31	0.225
1490.48	0.118
1498.64	0.126
1506.8	0.209
1514.97	0.259
1523.13	0.292
1531.29	0.288
1539.46	0.259
1547.62	0.238
1555.78	0.189
1563.95	0.174
1572.11	0.133
1580.27	0.099
1588.44	0.058
1596.6	0.038
1604.76	0.036
1612.93	0.042
1621.09	0.092
1629.25	0.125
1637.42	0.185
1645.58	0.234
1653.74	0.295
1661.91	0.327
1670.07	0.395
1678.23	0.451
1686.39	0.518
1694.56	0.538
1702.72	0.555
1710.88	0.632
1719.05	0.708
1727.21	0.731
1735.37	0.764
1743.54	0.786
1751.7	0.802
1759.86	0.817
1768.03	0.825
1776.19	0.836
1784.35	0.851
1792.52	0.862
1800.68	0.874
1808.84	0.881
1817.01	0.889
1825.17	0.895
1833.33	0.9
1841.5	0.903
1849.66	0.908
1857.82	0.911
1865.99	0.915
1874.15	0.917
1882.31	0.917
1890.48	0.917
1898.64	0.915
1906.8	0.917
1914.97	0.915
1923.13	0.917
1931.29	0.918
1939.46	0.915
1947.62	0.915
1955.78	0.917
1963.95	0.918
1972.11	0.918
1980.27	0.918
1988.44	0.918
1996.6	0.918
2004.76	0.918
2012.93	0.918
2021.09	0.915
2029.25	0.915
2037.42	0.914
2045.58	0.914
2053.74	0.914
2061.91	0.914
2070.07	0.915
2078.23	0.912
2086.39	0.91
2094.56	0.91
2102.72	0.908
2110.88	0.906
2119.05	0.904
2127.21	0.903
2135.37	0.903
2143.54	0.903
2151.7	0.897
2159.86	0.892
2168.03	0.892
2176.19	0.892
2184.35	0.892
2192.52	0.892
2200.68	0.889
2208.84	0.888
2217.01	0.889
2225.17	0.887
2233.33	0.882
2241.5	0.881
2249.66	0.877
2257.82	0.877
2265.99	0.876
2274.15	0.876
2282.31	0.874
2290.48	0.873
2298.64	0.868
2306.8	0.861
2314.97	0.855
2323.13	0.851
2331.29	0.851
2339.46	0.853
2347.62	0.854
2355.78	0.855
2363.95	0.857
2372.11	0.857
2380.27	0.855
2388.44	0.855
2396.6	0.853
2404.76	0.848
2412.93	0.844
2421.09	0.844
2429.25	0.847
2437.42	0.847
2445.58	0.846
2453.74	0.843
2461.91	0.84
2470.07	0.839
2478.23	0.836
2486.39	0.834
2494.56	0.831
2502.72	0.828
2510.88	0.827
2519.05	0.823
2527.21	0.819
2535.37	0.814
2543.54	0.813
2551.7	0.813
2559.86	0.812
2568.03	0.809
2576.19	0.798
2584.35	0.783
2592.52	0.771
2600.68	0.764
2608.84	0.76
2617.01	0.76
2625.17	0.76
2633.33	0.761
2641.5	0.763
2649.66	0.764
2657.82	0.763
2665.99	0.757
2674.15	0.751
2682.31	0.748
2690.48	0.748
2698.64	0.745
2706.8	0.738
2714.97	0.73
2723.13	0.722
2731.29	0.715
2739.46	0.712
2747.62	0.717
2755.78	0.725
2763.95	0.725
2772.11	0.711
2780.27	0.695
2788.44	0.665
2796.6	0.62
2804.76	0.595
2812.93	0.587
2821.09	0.574
2829.25	0.536
2837.42	0.406
2845.58	0.251
2853.74	0.189
2861.91	0.193
2870.07	0.2
2878.23	0.202
2886.4	0.174
2894.56	0.13
2902.72	0.103
2910.88	0.082
2919.05	0.065
2927.21	0.07
2935.37	0.087
2943.54	0.089
2951.7	0.089
2959.86	0.107
2968.03	0.172
2976.19	0.239
2984.35	0.282
2992.52	0.28
3000.68	0.253
3008.84	0.238
3017.01	0.212
3025.17	0.171
3033.33	0.156
3041.5	0.161
3049.66	0.176
3057.82	0.204
3065.99	0.263
3074.15	0.304
3082.31	0.31
3090.48	0.296
3098.64	0.272
3106.8	0.24
3114.97	0.212
3123.13	0.185
3131.29	0.16
3139.46	0.129
3147.62	0.106
3155.78	0.069
3163.95	0.048
3172.11	0.047
3180.27	0.05
3188.44	0.072
3196.6	0.084
3204.76	0.099
3212.93	0.129
3221.09	0.149
3229.25	0.175
3237.42	0.21
3245.58	0.259
3253.74	0.315
3261.91	0.365
3270.07	0.416
3278.23	0.465
3286.4	0.506
3294.56	0.546
3302.72	0.589
3310.88	0.625
3319.05	0.661
3327.21	0.699
3335.37	0.714
3343.54	0.741
3351.7	0.771
3359.86	0.798
3368.03	0.809
3376.19	0.824
3384.35	0.838
3392.52	0.848
3400.68	0.854
3408.84	0.857
3417.01	0.859
3425.17	0.861
3433.33	0.861
3441.5	0.862
3449.66	0.863
3457.82	0.865
3465.99	0.865
3474.15	0.865
3482.31	0.866
3490.48	0.869
3498.64	0.87
