Infrared Spectrum: 3-AMINOTHIOPHANE HYDROCHLORIDE
Formula: C4 H9 N S  * H Cl
CAS: 89123-28-4
State: SOLID (MINERAL OIL MULL)
Melting point: 165-165.5 C
Class: COBLENTZ
Instrument: Not specified, most likely a prism, grating, or hybrid spectrometer.
Sampling: TRANSMISSION
Resolution: 4
Origin: ARTHUR D. LITTLE, INC.
1/CM	TRANSMITTANCE
539.713	0.615
548.316	0.606
556.92	0.565
565.523	0.496
574.127	0.429
582.73	0.374
591.334	0.37
599.937	0.397
608.541	0.447
617.144	0.502
625.748	0.543
634.351	0.577
642.955	0.616
651.558	0.636
660.162	0.638
668.765	0.533
677.369	0.678
685.972	0.755
694.576	0.733
703.179	0.619
711.783	0.53
720.386	0.758
728.99	0.836
737.593	0.866
746.197	0.884
754.8	0.888
763.404	0.898
772.007	0.892
780.611	0.868
789.214	0.798
797.818	0.648
806.421	0.866
815.025	0.876
823.628	0.849
832.232	0.865
840.835	0.875
849.439	0.859
858.042	0.819
866.646	0.698
875.249	0.675
883.853	0.842
892.456	0.878
901.06	0.928
909.663	0.935
918.267	0.875
926.87	0.596
935.474	0.868
944.077	0.924
952.681	0.912
961.284	0.917
969.888	0.908
978.491	0.881
987.095	0.829
995.698	0.698
1004.3	0.49
1012.91	0.802
1021.51	0.836
1030.11	0.844
1038.72	0.832
1047.32	0.781
1055.92	0.606
1064.53	0.57
1073.13	0.41
1081.73	0.65
1090.34	0.792
1098.94	0.785
1107.54	0.746
1116.15	0.703
1124.75	0.751
1133.35	0.743
1141.96	0.715
1150.56	0.635
1159.16	0.437
1167.77	0.613
1176.37	0.711
1184.97	0.638
1193.58	0.414
1202.18	0.54
1210.79	0.645
1219.39	0.476
1227.99	0.316
1236.6	0.477
1245.2	0.663
1253.8	0.665
1262.41	0.699
1271.01	0.778
1279.61	0.968
1288.22	0.898
1296.82	0.782
1305.42	0.898
1314.03	0.968
1322.63	0.914
1331.23	0.844
1339.84	0.726
1348.44	0.497
1357.04	0.329
1365.65	0.573
1374.25	0.878
1382.86	0.899
1391.46	0.852
1400.06	0.751
1408.67	0.643
1417.27	0.507
1425.87	0.316
1434.48	0.195
1443.08	0.141
1451.68	0.174
1460.29	0.241
1468.89	0.331
1477.49	0.248
1486.1	0.084
1494.7	0.094
1503.3	0.353
1511.91	0.653
1520.51	0.751
1529.11	0.769
1537.72	0.771
1546.32	0.758
1554.92	0.731
1563.53	0.666
1572.13	0.62
1580.74	0.557
1589.34	0.404
1597.94	0.276
1606.55	0.3
1615.15	0.643
1623.75	0.842
1632.36	0.854
1640.96	0.862
1649.56	0.869
1658.17	0.875
1666.77	0.885
1675.37	0.892
1683.98	0.899
1692.58	0.905
1701.18	0.902
1709.79	0.894
1718.39	0.886
1726.99	0.884
1735.6	0.882
1744.2	0.881
1752.81	0.879
1761.41	0.876
1770.01	0.876
1778.62	0.879
1787.22	0.885
1795.82	0.882
1804.43	0.874
1813.03	0.859
1821.63	0.849
1830.24	0.846
1838.84	0.849
1847.44	0.846
1856.05	0.839
1864.65	0.835
1873.25	0.814
1881.86	0.795
1890.46	0.779
1899.06	0.769
1907.67	0.766
1916.27	0.746
1924.88	0.736
1933.48	0.725
1942.08	0.701
1950.69	0.678
1959.29	0.672
1967.89	0.663
1976.5	0.643
1985.1	0.616
1993.7	0.587
2002.31	0.565
2010.91	0.542
2019.51	0.513
2028.12	0.496
2036.72	0.47
2045.32	0.44
2053.93	0.42
2062.53	0.432
2071.13	0.532
2079.74	0.662
2088.34	0.725
2096.94	0.763
2105.55	0.772
2114.15	0.778
2122.76	0.769
2131.36	0.778
2139.96	0.778
2148.57	0.771
2157.17	0.769
2165.77	0.763
2174.38	0.761
2182.98	0.756
2191.58	0.752
2200.19	0.755
2208.79	0.753
2217.39	0.746
2226	0.738
2234.6	0.735
2243.2	0.731
2251.81	0.723
2260.41	0.726
2269.01	0.726
2277.62	0.719
2286.22	0.711
2294.83	0.695
2303.43	0.675
2312.03	0.665
2320.64	0.666
2329.24	0.658
2337.84	0.65
2346.45	0.648
2355.05	0.645
2363.65	0.64
2372.26	0.628
2380.86	0.616
2389.46	0.6
2398.07	0.596
2406.67	0.589
2415.27	0.57
2423.88	0.552
2432.48	0.516
2441.08	0.477
2449.69	0.496
2458.29	0.5
2466.89	0.489
2475.5	0.474
2484.1	0.453
2492.71	0.42
2501.31	0.347
2509.91	0.266
2518.52	0.27
2527.12	0.337
2535.72	0.346
2544.33	0.333
2552.93	0.313
2561.53	0.274
2570.14	0.197
2578.74	0.155
2587.34	0.18
2595.95	0.213
2604.55	0.207
2613.15	0.184
2621.76	0.181
2630.36	0.201
2638.96	0.206
2647.57	0.184
2656.17	0.144
2664.78	0.114
2673.38	0.123
2681.98	0.137
2690.59	0.148
2699.19	0.153
2707.79	0.147
2716.4	0.133
2725	0.111
2733.6	0.1
2742.21	0.103
2750.81	0.097
2759.41	0.082
2768.02	0.071
2776.62	0.057
2785.22	0.047
2793.83	0.038
2802.43	0.03
2811.03	0.025
2819.64	0.024
2828.24	0.015
2836.85	0.008
2845.45	0.004
2854.05	0.004
2862.66	0.004
2871.26	0.002
2879.86	0.002
2888.47	0.002
2897.07	0.002
2905.67	0.002
2914.28	0.002
2922.88	0.002
2931.48	0.004
2940.09	0.004
2948.69	0.004
2957.29	0.007
2965.9	0.01
2974.5	0.012
2983.1	0.015
2991.71	0.018
3000.31	0.022
3008.91	0.028
3017.52	0.034
3026.12	0.047
3034.73	0.061
3043.33	0.071
3051.93	0.075
3060.54	0.09
3069.14	0.105
3077.74	0.123
3086.35	0.137
3094.95	0.154
3103.55	0.188
3112.16	0.223
3120.76	0.284
3129.36	0.34
3137.97	0.393
3146.57	0.429
3155.17	0.464
3163.78	0.512
3172.38	0.546
3180.98	0.577
3189.59	0.6
3198.19	0.625
3206.8	0.653
3215.4	0.696
3224	0.779
3232.61	0.856
3241.21	0.892
3249.81	0.902
3258.42	0.921
3267.02	0.927
3275.62	0.928
3284.23	0.929
3292.83	0.929
3301.43	0.925
3310.04	0.922
3318.64	0.912
3327.24	0.909
3335.85	0.908
3344.45	0.898
3353.05	0.889
3361.66	0.885
3370.26	0.884
3378.87	0.872
3387.47	0.864
3396.07	0.864
3404.68	0.862
3413.28	0.861
3421.88	0.852
3430.49	0.844
3439.09	0.839
3447.69	0.834
3456.3	0.828
3464.9	0.824
3473.5	0.821
3482.11	0.818
3490.71	0.816
