Infrared Spectrum: 5-PYRIMIDINAMINE, 4-CHLORO-6-FORMYLHYDRAZINO-
Formula: C5 H6 Cl N5 O
CAS: 89182-26-3
State: SOLID (1 mg / 500 mg KBr DISC)
Class: COBLENTZ III
Instrument: PERKIN-ELMER 521 (GRATING)
Sampling: TRANSMISSION
Resolution: 4
Origin: SOUTHERN RESEARCH INSTITUTE
1/CM	TRANSMITTANCE
259.422	0.296
269.937	0.3969
280.452	0.4579
290.966	0.517
301.481	0.5719
311.996	0.597
322.511	0.6299
333.025	0.6709
343.54	0.698
354.055	0.709
364.57	0.715
375.085	0.729
385.599	0.7131
396.114	0.6779
406.629	0.712
417.144	0.7179
427.658	0.759
438.173	0.766
448.688	0.762
459.203	0.756
469.718	0.751
480.232	0.747
490.747	0.7342
501.262	0.7222
511.777	0.716
522.291	0.6942
532.806	0.6473
543.321	0.6489
553.836	0.6569
564.351	0.6728
574.865	0.678
585.38	0.6771
595.895	0.674
606.41	0.6691
616.924	0.669
627.439	0.669
637.954	0.6709
648.469	0.674
658.984	0.6839
669.498	0.6999
680.013	0.7129
690.528	0.7348
701.043	0.7538
711.557	0.7578
722.072	0.7541
732.587	0.7118
743.102	0.7001
753.617	0.739
764.131	0.7257
774.646	0.8177
785.161	0.8181
795.676	0.8021
806.19	0.7891
816.705	0.78
827.22	0.7624
837.735	0.6805
848.25	0.6452
858.764	0.6348
869.279	0.7059
879.794	0.8063
890.309	0.8112
900.823	0.7921
911.338	0.7712
921.853	0.7602
932.368	0.7669
942.883	0.7828
953.397	0.7938
963.912	0.8394
974.427	0.8481
984.942	0.8401
995.456	0.8301
1005.97	0.8034
1016.49	0.7921
1027	0.7809
1037.52	0.7562
1048.03	0.7037
1058.55	0.7119
1069.06	0.7533
1079.57	0.7541
1090.09	0.7213
1100.6	0.6923
1111.12	0.6937
1121.63	0.7089
1132.15	0.7347
1142.66	0.7657
1153.18	0.768
1163.69	0.7712
1174.21	0.7543
1184.72	0.6966
1195.24	0.6611
1205.75	0.6123
1216.27	0.723
1226.78	0.7592
1237.3	0.7643
1247.81	0.6923
1258.33	0.732
1268.84	0.72
1279.36	0.715
1289.87	0.7281
1300.39	0.7657
1310.9	0.7632
1321.41	0.7296
1331.93	0.6372
1342.44	0.6806
1352.96	0.713
1363.47	0.662
1373.99	0.5563
1384.5	0.492
1395.02	0.6086
1405.53	0.5531
1416.05	0.3736
1426.56	0.4268
1437.08	0.509
1447.59	0.4358
1458.11	0.3556
1468.62	0.3356
1479.14	0.4601
1489.65	0.475
1500.17	0.469
1510.68	0.5231
1521.2	0.618
1531.71	0.6107
1542.22	0.5544
1552.74	0.4396
1563.25	0.2621
1573.77	0.1518
1584.28	0.2578
1594.8	0.4553
1605.31	0.6089
1615.83	0.6119
1626.34	0.5566
1636.86	0.5131
1647.37	0.4303
1657.89	0.3628
1668.4	0.4102
1678.92	0.1834
1689.43	0.2129
1699.95	0.4392
1710.46	0.6669
1720.98	0.7948
1731.49	0.8635
1742.01	0.9095
1752.52	0.9337
1763.04	0.9417
1773.55	0.946
1784.06	0.9485
1794.58	0.9507
1805.09	0.952
1815.61	0.951
1826.12	0.947
1836.64	0.9423
1847.15	0.946
1857.67	0.949
1868.18	0.951
1878.7	0.954
1889.21	0.955
1899.73	0.955
1910.24	0.955
1920.76	0.955
1931.27	0.9543
1941.79	0.952
1952.3	0.95
1962.82	0.947
1973.33	0.9493
1983.85	0.949
1994.36	0.95
2004.88	0.9583
2015.39	0.95
2025.9	0.95
2036.42	0.946
2046.93	0.946
2057.45	0.947
2067.96	0.947
2078.48	0.942
2088.99	0.941
2099.51	0.939
2110.02	0.939
2120.54	0.938
2131.05	0.938
2141.57	0.939
2152.08	0.939
2162.6	0.937
2173.11	0.935
2183.63	0.935
2194.14	0.932
2204.66	0.93
2215.17	0.93
2225.69	0.929
2236.2	0.929
2246.72	0.9283
2257.23	0.9266
2267.74	0.924
2278.26	0.924
2288.77	0.922
2299.29	0.9173
2309.8	0.915
2320.32	0.9123
2330.83	0.912
2341.35	0.9127
2351.86	0.912
2362.38	0.911
2372.89	0.911
2383.41	0.909
2393.92	0.908
2404.44	0.9043
2414.95	0.901
2425.47	0.9
2435.98	0.9
2446.5	0.896
2457.01	0.892
2467.53	0.888
2478.04	0.884
2488.55	0.883
2499.07	0.8796
2509.58	0.881
2520.1	0.8796
2530.61	0.8773
2541.13	0.875
2551.64	0.875
2562.16	0.874
2572.67	0.874
2583.19	0.873
2593.7	0.871
2604.22	0.866
2614.73	0.865
2625.25	0.861
2635.76	0.857
2646.28	0.856
2656.79	0.852
2667.31	0.849
2677.82	0.8363
2688.34	0.833
2698.85	0.8303
2709.37	0.82
2719.88	0.815
2730.39	0.8076
2740.91	0.8013
2751.42	0.7963
2761.94	0.792
2772.45	0.7883
2782.97	0.7846
2793.48	0.78
2804	0.7713
2814.51	0.7633
2825.03	0.752
2835.54	0.7396
2846.06	0.7229
2856.57	0.7096
2867.09	0.6932
2877.6	0.6749
2888.12	0.6566
2898.63	0.645
2909.15	0.6409
2919.66	0.6303
2930.18	0.616
2940.69	0.6103
2951.21	0.6036
2961.72	0.5923
2972.23	0.5793
2982.75	0.573
2993.26	0.5767
3003.78	0.5874
3014.29	0.5967
3024.81	0.605
3035.32	0.6084
3045.84	0.609
3056.35	0.6036
3066.87	0.5946
3077.38	0.59
3087.9	0.5809
3098.41	0.5639
3108.93	0.5392
3119.44	0.5156
3129.96	0.5016
3140.47	0.4879
3150.99	0.4655
3161.5	0.4396
3172.02	0.4112
3182.53	0.3846
3193.05	0.3595
3203.56	0.3323
3214.07	0.3156
3224.59	0.3043
3235.1	0.3
3245.62	0.3167
3256.13	0.3424
3266.65	0.3651
3277.16	0.3781
3287.68	0.396
3298.19	0.4007
3308.71	0.4017
3319.22	0.4044
3329.74	0.4125
3340.25	0.4357
3350.77	0.4647
3361.28	0.4945
3371.8	0.509
3382.31	0.508
3392.83	0.5191
3403.34	0.5507
3413.86	0.5757
3424.37	0.5991
3434.89	0.6208
3445.4	0.6511
3455.91	0.6858
3466.43	0.7061
3476.94	0.7191
3487.46	0.7281
3497.97	0.7377
3508.49	0.7497
3519	0.7637
3529.52	0.7767
3540.03	0.7908
3550.55	0.8044
3561.06	0.8137
3571.58	0.8267
3582.09	0.8367
3592.61	0.85
3603.12	0.8601
3613.64	0.8764
3624.15	0.8817
3634.67	0.8877
3645.18	0.888
3655.7	0.8873
3666.21	0.886
3676.72	0.888
3687.24	0.8947
3697.75	0.894
3708.27	0.895
3718.78	0.892
3729.3	0.89
3739.81	0.89
3750.33	0.89
3760.84	0.89
3771.36	0.8873
3781.87	0.884
3792.39	0.884
3802.9	0.883
3813.42	0.882
3823.93	0.882
3834.45	0.882
3844.96	0.879
3855.48	0.881
3865.99	0.8796
3876.51	0.879
3887.02	0.879
3897.54	0.878
3908.05	0.878
3918.56	0.879
3929.08	0.878
3939.59	0.877
3950.11	0.879
3960.62	0.877
3971.14	0.875
3981.65	0.875
3992.17	0.877
