Infrared Spectrum: Phenol,2,6-BIS(1',1'-dimethylethyl)-4-dimethylaminomethyl-, hydrochloride
Formula: C17 H30 Cl N O
CAS: 892-75-1
State: SOLID (KBr DISC, 0.8% WT.)
Class: COBLENTZ III
Instrument: PERKIN-ELMER 157
Sampling: TRANSMISSION
Resolution: 2
Origin: BRITISH PETROLEUM CO. LTD., ENGLAND
1/CM	TRANSMITTANCE
667	0.9792
676	0.9751
685	0.9511
694	0.9376
703	0.9249
712	0.9179
721	0.903
730	0.8921
739	0.8733
748	0.8402
757	0.7979
766	0.6999
775	0.4107
784	0.7716
793	0.3836
802	0.7682
811	0.7436
820	0.4449
829	0.5719
838	0.8304
847	0.8276
856	0.8146
865	0.7993
874	0.7628
883	0.4804
892	0.3309
901	0.5559
910	0.71
919	0.7105
928	0.5205
937	0.186
946	0.5797
955	0.5461
964	0.5176
973	0.5116
982	0.76
991	0.7837
1000	0.7752
1009	0.713
1018	0.4131
1027	0.577
1036	0.6971
1045	0.7255
1054	0.7095
1063	0.6376
1072	0.6909
1081	0.6756
1090	0.6374
1099	0.5799
1108	0.4809
1117	0.3271
1126	0.1862
1135	0.1107
1144	0.3277
1153	0.123
1162	0.0549
1171	0.1156
1180	0.2094
1189	0.2667
1198	0.2204
1207	0.1789
1216	0.0929
1225	0.165
1234	0.1769
1243	0.1786
1252	0.2833
1261	0.3907
1270	0.3947
1279	0.5126
1288	0.4632
1297	0.3137
1306	0.5719
1315	0.5254
1324	0.2734
1333	0.5784
1342	0.6059
1351	0.5118
1360	0.1937
1369	0.2549
1378	0.3496
1387	0.3341
1396	0.2667
1405	0.1715
1414	0.0705
1423	0.1276
1432	0.0511
1441	0.0484
1450	0.1517
1459	0.1684
1468	0.1245
1477	0.0648
1486	0.1203
1495	0.4731
1504	0.632
1513	0.6715
1522	0.7073
1531	0.711
1540	0.7122
1549	0.7136
1558	0.7151
1567	0.7162
1576	0.712
1585	0.7057
1594	0.6938
1603	0.6832
1612	0.6984
1621	0.7476
1630	0.7699
1639	0.7759
1648	0.7847
1657	0.784
1666	0.7879
1675	0.793
1684	0.7972
1693	0.7984
1702	0.7991
1711	0.8022
1720	0.8061
1729	0.8129
1738	0.8151
1747	0.8105
1756	0.7988
1765	0.7867
1774	0.7787
1783	0.7782
1792	0.7777
1801	0.7834
1810	0.8006
1819	0.8112
1828	0.815
1837	0.8162
1846	0.8166
1855	0.8163
1864	0.8153
1873	0.8141
1882	0.8124
1891	0.8109
1900	0.8096
1909	0.8091
1918	0.8089
1927	0.8097
1936	0.8112
1945	0.8114
1954	0.811
1963	0.8092
1972	0.8067
1981	0.8034
1990	0.7995
1999	0.7955
2008	0.7913
2017	0.7903
2026	0.7905
2035	0.7908
2044	0.7903
2053	0.7893
2062	0.7872
2071	0.7846
2080	0.7798
2089	0.7786
2098	0.779
2107	0.7781
2116	0.775
2125	0.7716
2134	0.7707
2143	0.7745
2152	0.7725
2161	0.7672
2170	0.7595
2179	0.7508
2188	0.7425
2197	0.7375
2206	0.7326
2215	0.7252
2224	0.7179
2233	0.7061
2242	0.699
2251	0.6897
2260	0.6852
2269	0.6826
2278	0.6714
2287	0.6511
2296	0.629
2305	0.6122
2314	0.5892
2323	0.5571
2332	0.5224
2341	0.4881
2350	0.4659
2359	0.4309
2368	0.409
2377	0.3908
2386	0.3776
2395	0.3634
2404	0.3509
2413	0.338
2422	0.318
2431	0.2778
2440	0.2451
2449	0.2367
2458	0.2292
2467	0.182
2476	0.1396
2485	0.1332
2494	0.1401
2503	0.1517
2512	0.1509
2521	0.1263
2530	0.1264
2539	0.1272
2548	0.1268
2557	0.1232
2566	0.1118
2575	0.0926
2584	0.0817
2593	0.076
2602	0.0695
2611	0.0612
2620	0.0527
2629	0.0441
2638	0.0375
2647	0.0342
2656	0.0344
2665	0.0354
2674	0.0652
2683	0.0797
2692	0.0996
2701	0.1378
2710	0.1813
2719	0.2202
2728	0.2755
2737	0.3308
2746	0.3583
2755	0.3722
2764	0.3788
2773	0.3793
2782	0.3772
2791	0.3727
2800	0.367
2809	0.3454
2818	0.3134
2827	0.2816
2836	0.25
2845	0.2291
2854	0.1825
2863	0.1372
2872	0.0961
2881	0.0762
2890	0.0727
2899	0.0672
2908	0.0537
2917	0.0463
2926	0.0452
2935	0.0441
2944	0.0374
2953	0.0332
2962	0.038
2971	0.0834
2980	0.1288
2989	0.1739
2998	0.2185
3007	0.2373
3016	0.311
3025	0.431
3034	0.4448
3043	0.456
3052	0.4624
3061	0.4669
3070	0.4699
3079	0.4726
3088	0.4733
3097	0.4726
3106	0.4707
3115	0.4679
3124	0.4651
3133	0.4615
3142	0.4514
3151	0.4414
3160	0.4281
3169	0.4153
3178	0.4035
3187	0.3819
3196	0.3624
3205	0.3471
3214	0.3229
3223	0.3101
3232	0.3009
3241	0.2932
3250	0.2876
3259	0.2866
3268	0.2869
3277	0.2895
3286	0.295
3295	0.2991
3304	0.3029
3313	0.3064
3322	0.3101
3331	0.3139
3340	0.32
3349	0.3282
3358	0.3374
3367	0.3481
3376	0.3539
3385	0.3585
3394	0.3592
3403	0.3599
3412	0.3612
3421	0.3702
3430	0.3812
3439	0.3897
3448	0.3987
3457	0.4042
3466	0.4103
3475	0.42
3484	0.4302
3493	0.4375
3502	0.4462
3511	0.4571
3520	0.4702
3529	0.4925
3538	0.5109
3547	0.5145
3556	0.5157
3565	0.5167
3574	0.517
3583	0.5017
3592	0.4661
3601	0.4306
3610	0.3953
3619	0.3601
3628	0.3252
3637	0.2904
3646	0.2619
3655	0.2732
3664	0.3491
3673	0.4246
3682	0.4998
3691	0.5577
3700	0.5695
3709	0.5729
3718	0.5748
3727	0.5753
3736	0.5753
3745	0.574
3754	0.5719
3763	0.5698
3772	0.5686
3781	0.568
3790	0.5676
3799	0.5675
3808	0.5673
3817	0.567
3826	0.5668
3835	0.5665
3844	0.5662
3853	0.5657
3862	0.5631
3871	0.5597
3880	0.5573
3889	0.5549
3898	0.5526
3907	0.5504
3916	0.5481
3925	0.5465
3934	0.5453
3943	0.5442
3952	0.5433
3961	0.5428
3970	0.5426
3979	0.5425
3988	0.5422
3997	0.5422
