Infrared Spectrum: Formamide, N-(4-amino-2,6-dichloro-5-pyrimidinyl)-
Formula: C5 H4 Cl2 N4 O
CAS: 89284-45-7
State: SOLID (0.8 mg / 650 mg KBr DISC)
Class: COBLENTZ III
Instrument: PERKIN-ELMER 221 (GRATING)
Instrument parameters: FILTER AT 980 CM^-^1. GRATING 4000-1428 CM^-^1, NaCl PRISM 1428-650 CM^-^1
Resolution: 2
Origin: SOUTHERN RESEARCH INSTITUTE
1/CM	TRANSMITTANCE
595.307	0.8672
604.333	0.8585
613.359	0.8538
622.385	0.8455
631.411	0.8196
640.437	0.7871
649.463	0.7963
658.489	0.8
667.515	0.7247
676.541	0.6582
685.567	0.6845
694.593	0.4602
703.619	0.6785
712.645	0.6512
721.671	0.6411
730.697	0.733
739.723	0.7901
748.749	0.7911
757.775	0.6562
766.801	0.744
775.827	0.8156
784.853	0.8125
793.879	0.8018
802.905	0.787
811.931	0.7817
820.957	0.748
829.983	0.6212
839.009	0.3365
848.035	0.2109
857.061	0.5744
866.087	0.7701
875.113	0.7857
884.139	0.7786
893.165	0.6418
902.191	0.3073
911.217	0.7259
920.243	0.7966
929.269	0.7999
938.295	0.7848
947.321	0.7608
956.347	0.7371
965.373	0.7162
974.399	0.6879
983.425	0.6064
992.451	0.4338
1001.48	0.2088
1010.5	0.6137
1019.53	0.4213
1028.55	0.742
1037.58	0.7496
1046.61	0.7297
1055.63	0.6926
1064.66	0.5707
1073.68	0.6835
1082.71	0.7357
1091.74	0.7441
1100.76	0.7392
1109.79	0.7301
1118.81	0.7104
1127.84	0.6302
1136.87	0.5456
1145.89	0.7121
1154.92	0.7119
1163.94	0.7011
1172.97	0.6857
1182	0.6681
1191.02	0.6376
1200.05	0.5854
1209.07	0.4068
1218.1	0.4904
1227.13	0.5619
1236.15	0.5069
1245.18	0.3312
1254.2	0.1786
1263.23	0.1271
1272.26	0.0994
1281.28	0.3819
1290.31	0.5963
1299.33	0.6025
1308.36	0.5953
1317.39	0.5856
1326.41	0.5698
1335.44	0.5266
1344.46	0.4593
1353.49	0.3442
1362.52	0.1358
1371.54	0.1151
1380.57	0.1437
1389.59	0.2525
1398.62	0.2162
1407.65	0.536
1416.67	0.5459
1425.7	0.5672
1434.72	0.5416
1443.75	0.4864
1452.78	0.3194
1461.8	0.2493
1470.83	0.0975
1479.85	0.0556
1488.88	0.0652
1497.91	0.0746
1506.93	0.2262
1515.96	0.3766
1524.98	0.3692
1534.01	0.2201
1543.04	0.0605
1552.06	0.0515
1561.09	0.0405
1570.11	0.1947
1579.14	0.3468
1588.17	0.6321
1597.19	0.6677
1606.22	0.6372
1615.24	0.4638
1624.27	0.2967
1633.3	0.0438
1642.32	0.0587
1651.35	0.1027
1660.37	0.0638
1669.4	0.0933
1678.43	0.2989
1687.45	0.4285
1696.48	0.5673
1705.5	0.6442
1714.53	0.6992
1723.56	0.7528
1732.58	0.7891
1741.61	0.8179
1750.63	0.8417
1759.66	0.8542
1768.69	0.8644
1777.71	0.8718
1786.74	0.8771
1795.76	0.8787
1804.79	0.8787
1813.82	0.8787
1822.84	0.8792
1831.87	0.8827
1840.89	0.8889
1849.92	0.8926
1858.95	0.8928
1867.97	0.8923
1877	0.8914
1886.02	0.8901
1895.05	0.888
1904.08	0.8856
1913.1	0.8861
1922.13	0.8881
1931.15	0.8839
1940.18	0.8768
1949.21	0.8746
1958.23	0.8757
1967.26	0.8787
1976.28	0.8804
1985.31	0.8815
1994.34	0.8824
2003.36	0.8776
2012.39	0.8774
2021.41	0.8747
2030.44	0.87
2039.47	0.8665
2048.49	0.864
2057.52	0.8614
2066.54	0.8585
2075.57	0.8564
2084.6	0.8546
2093.62	0.8529
2102.65	0.8513
2111.67	0.8498
2120.7	0.8486
2129.73	0.8475
2138.75	0.8476
2147.78	0.8483
2156.8	0.8473
2165.83	0.8457
2174.86	0.8439
2183.88	0.8415
2192.91	0.8392
2201.93	0.8376
2210.96	0.8379
2219.99	0.8389
2229.01	0.8366
2238.04	0.834
2247.06	0.8312
2256.09	0.827
2265.12	0.8218
2274.14	0.8177
2283.17	0.8201
2292.19	0.8254
2301.22	0.8292
2310.25	0.83
2319.27	0.8233
2328.3	0.8159
2337.32	0.8134
2346.35	0.8112
2355.38	0.8092
2364.4	0.8078
2373.43	0.8064
2382.45	0.805
2391.48	0.8036
2400.51	0.8026
2409.53	0.8024
2418.56	0.8007
2427.58	0.797
2436.61	0.7921
2445.64	0.7885
2454.66	0.7872
2463.69	0.7893
2472.71	0.7959
2481.74	0.7808
2490.77	0.7754
2499.79	0.7742
2508.82	0.7729
2517.84	0.7721
2526.87	0.7712
2535.9	0.7708
2544.92	0.7691
2553.95	0.7678
2562.97	0.767
2572	0.7668
2581.03	0.7647
2590.05	0.7554
2599.08	0.7485
2608.1	0.7413
2617.13	0.735
2626.16	0.7323
2635.18	0.7316
2644.21	0.7309
2653.23	0.7304
2662.26	0.726
2671.29	0.7091
2680.31	0.6982
2689.34	0.6904
2698.36	0.6873
2707.39	0.6887
2716.42	0.6912
2725.44	0.6929
2734.47	0.692
2743.49	0.6901
2752.52	0.6871
2761.55	0.6836
2770.57	0.6794
2779.6	0.677
2788.62	0.6829
2797.65	0.6854
2806.68	0.6855
2815.7	0.6833
2824.73	0.6804
2833.75	0.6774
2842.78	0.6734
2851.81	0.6646
2860.83	0.6521
2869.86	0.6383
2878.88	0.6229
2887.91	0.6058
2896.94	0.5913
2905.96	0.5872
2914.99	0.557
2924.01	0.5358
2933.04	0.5673
2942.07	0.5646
2951.09	0.5479
2960.12	0.5246
2969.14	0.5142
2978.17	0.5159
2987.2	0.5189
2996.22	0.5213
3005.25	0.5134
3014.27	0.4987
3023.3	0.4746
3032.33	0.4505
3041.35	0.4282
3050.38	0.4166
3059.4	0.4079
3068.43	0.3979
3077.46	0.3821
3086.48	0.3547
3095.51	0.3252
3104.53	0.2934
3113.56	0.2538
3122.59	0.2138
3131.61	0.1697
3140.64	0.1264
3149.66	0.0947
3158.69	0.0859
3167.72	0.1237
3176.74	0.2113
3185.77	0.2308
3194.79	0.2325
3203.82	0.2302
3212.85	0.2266
3221.87	0.2228
3230.9	0.2168
3239.92	0.207
3248.95	0.1884
3257.98	0.1611
3267	0.1294
3276.03	0.1108
3285.05	0.1132
3294.08	0.1275
3303.11	0.1689
3312.13	0.2255
3321.16	0.2982
3330.18	0.3715
3339.21	0.4232
3348.24	0.4493
3357.26	0.4513
3366.29	0.4363
3375.31	0.4161
3384.34	0.3729
3393.37	0.293
3402.39	0.1838
3411.42	0.1774
3420.44	0.2849
3429.47	0.4198
3438.5	0.5034
3447.52	0.5593
3456.55	0.5925
3465.57	0.6098
3474.6	0.6305
3483.63	0.6561
3492.65	0.6663
3501.68	0.6757
3510.7	0.6818
3519.73	0.6886
3528.76	0.6966
3537.78	0.7047
3546.81	0.7121
3555.83	0.7185
3564.86	0.724
3573.89	0.7287
3582.91	0.7378
3591.94	0.7461
3600.96	0.7516
3609.99	0.7572
3619.02	0.76
3628.04	0.7605
3637.07	0.7596
3646.09	0.757
3655.12	0.7548
3664.15	0.7518
3673.17	0.7506
3682.2	0.7502
3691.22	0.7513
3700.25	0.7522
3709.28	0.749
3718.3	0.7472
3727.33	0.7411
3736.35	0.739
3745.38	0.7375
3754.41	0.7363
3763.43	0.7381
3772.46	0.7379
3781.48	0.7361
3790.51	0.7339
3799.54	0.7314
3808.56	0.7284
3817.59	0.7248
3826.61	0.7196
3835.64	0.7147
3844.67	0.7123
3853.69	0.7107
3862.72	0.7107
3871.74	0.7109
3880.77	0.7101
3889.8	0.7085
3898.82	0.706
3907.85	0.7034
