Infrared Spectrum: 1,2,5-THIADIAZOLE-3-CARBOXAMIDE, 4-(3-ETHYLUREIDO)-
Formula: C6 H9 N5 O2 S
CAS: 89465-63-4
State: SOLID (1 mg / 500 mg KBr DISC)
Class: COBLENTZ III
Instrument: PERKIN-ELMER 221 (GRATING)
Instrument parameters: FILTERS AT 2490, 980 CM ^-^1, GRATING FOR 4000-1428 CM ^-^1, NaCl PRISM FOR 1428-650 CM^-^1
Sampling: TRANSMISSION
Resolution: 4
Origin: SOUTHERN RES. INSTITUTE
1/CM	TRANSMITTANCE
607.851	0.812
617.149	0.813
626.446	0.812
635.744	0.767
645.041	0.804
654.339	0.809
663.636	0.822
672.934	0.831
682.231	0.867
691.529	0.865
700.826	0.808
710.124	0.778
719.421	0.873
728.719	0.904
738.016	0.908
747.314	0.892
756.612	0.828
765.909	0.876
775.207	0.896
784.504	0.876
793.802	0.879
803.099	0.825
812.397	0.781
821.694	0.761
830.992	0.882
840.289	0.868
849.587	0.767
858.884	0.929
868.182	0.951
877.479	0.95
886.777	0.945
896.074	0.951
905.372	0.955
914.67	0.953
923.967	0.942
933.265	0.923
942.562	0.854
951.86	0.924
961.157	0.949
970.455	0.946
979.752	0.94
989.05	0.933
998.347	0.932
1007.64	0.935
1016.94	0.932
1026.24	0.931
1035.54	0.929
1044.83	0.925
1054.13	0.922
1063.43	0.913
1072.73	0.908
1082.03	0.895
1091.32	0.896
1100.62	0.892
1109.92	0.879
1119.22	0.852
1128.51	0.819
1137.81	0.859
1147.11	0.837
1156.41	0.817
1165.7	0.859
1175	0.877
1184.3	0.873
1193.6	0.863
1202.89	0.842
1212.19	0.829
1221.49	0.808
1230.79	0.776
1240.08	0.735
1249.38	0.648
1258.68	0.544
1267.98	0.523
1277.27	0.65
1286.57	0.503
1295.87	0.624
1305.17	0.772
1314.46	0.806
1323.76	0.849
1333.06	0.832
1342.36	0.821
1351.65	0.77
1360.95	0.785
1370.25	0.742
1379.55	0.804
1388.84	0.834
1398.14	0.837
1407.44	0.818
1416.74	0.8
1426.03	0.791
1435.33	0.756
1444.63	0.634
1453.93	0.607
1463.22	0.767
1472.52	0.75
1481.82	0.734
1491.12	0.681
1500.41	0.569
1509.71	0.426
1519.01	0.349
1528.31	0.471
1537.6	0.676
1546.9	0.603
1556.2	0.443
1565.5	0.426
1574.79	0.546
1584.09	0.677
1593.39	0.697
1602.69	0.681
1611.98	0.665
1621.28	0.614
1630.58	0.546
1639.88	0.471
1649.17	0.348
1658.47	0.23
1667.77	0.221
1677.07	0.309
1686.36	0.347
1695.66	0.359
1704.96	0.574
1714.26	0.68
1723.55	0.758
1732.85	0.812
1742.15	0.838
1751.45	0.868
1760.74	0.878
1770.04	0.89
1779.34	0.902
1788.64	0.908
1797.94	0.917
1807.23	0.926
1816.53	0.934
1825.83	0.936
1835.13	0.939
1844.42	0.941
1853.72	0.948
1863.02	0.951
1872.32	0.95
1881.61	0.949
1890.91	0.949
1900.21	0.949
1909.51	0.946
1918.8	0.948
1928.1	0.947
1937.4	0.946
1946.7	0.946
1955.99	0.943
1965.29	0.944
1974.59	0.945
1983.89	0.942
1993.18	0.94
2002.48	0.94
2011.78	0.942
2021.08	0.941
2030.37	0.939
2039.67	0.937
2048.97	0.937
2058.27	0.935
2067.56	0.933
2076.86	0.933
2086.16	0.934
2095.46	0.935
2104.75	0.933
2114.05	0.932
2123.35	0.932
2132.65	0.934
2141.94	0.934
2151.24	0.934
2160.54	0.934
2169.84	0.933
2179.13	0.933
2188.43	0.932
2197.73	0.932
2207.03	0.931
2216.32	0.929
2225.62	0.927
2234.92	0.926
2244.22	0.924
2253.51	0.924
2262.81	0.926
2272.11	0.926
2281.41	0.926
2290.7	0.923
2300	0.921
2309.3	0.919
2318.6	0.916
2327.89	0.912
2337.19	0.91
2346.49	0.911
2355.79	0.907
2365.08	0.907
2374.38	0.914
2383.68	0.916
2392.98	0.916
2402.27	0.914
2411.57	0.913
2420.87	0.911
2430.17	0.909
2439.46	0.907
2448.76	0.906
2458.06	0.904
2467.36	0.907
2476.65	0.91
2485.95	0.909
2495.25	0.906
2504.55	0.904
2513.84	0.905
2523.14	0.905
2532.44	0.906
2541.74	0.902
2551.04	0.899
2560.33	0.897
2569.63	0.896
2578.93	0.893
2588.23	0.894
2597.52	0.895
2606.82	0.895
2616.12	0.894
2625.42	0.891
2634.71	0.888
2644.01	0.885
2653.31	0.885
2662.61	0.882
2671.9	0.88
2681.2	0.877
2690.5	0.875
2699.8	0.873
2709.09	0.872
2718.39	0.871
2727.69	0.87
2736.99	0.869
2746.28	0.869
2755.58	0.869
2764.88	0.865
2774.18	0.852
2783.47	0.848
2792.77	0.845
2802.07	0.848
2811.37	0.85
2820.66	0.851
2829.96	0.85
2839.26	0.848
2848.56	0.845
2857.85	0.837
2867.15	0.815
2876.45	0.8
2885.75	0.795
2895.04	0.815
2904.34	0.819
2913.64	0.814
2922.94	0.791
2932.23	0.788
2941.53	0.792
2950.83	0.79
2960.13	0.756
2969.42	0.745
2978.72	0.749
2988.02	0.778
2997.32	0.796
3006.61	0.795
3015.91	0.785
3025.21	0.778
3034.51	0.776
3043.8	0.764
3053.1	0.754
3062.4	0.744
3071.7	0.732
3080.99	0.721
3090.29	0.709
3099.59	0.672
3108.89	0.655
3118.18	0.64
3127.48	0.633
3136.78	0.627
3146.08	0.624
3155.37	0.626
3164.67	0.627
3173.97	0.63
3183.27	0.636
3192.56	0.65
3201.86	0.665
3211.16	0.669
3220.46	0.666
3229.75	0.652
3239.05	0.633
3248.35	0.598
3257.65	0.549
3266.95	0.514
3276.24	0.506
3285.54	0.516
3294.84	0.564
3304.14	0.571
3313.43	0.557
3322.73	0.505
3332.03	0.459
3341.33	0.427
3350.62	0.389
3359.92	0.382
3369.22	0.394
3378.52	0.469
3387.81	0.56
3397.11	0.623
3406.41	0.684
3415.71	0.714
3425	0.726
3434.3	0.748
3443.6	0.751
3452.9	0.758
3462.19	0.765
3471.49	0.775
3480.79	0.779
3490.09	0.786
3499.38	0.791
3508.68	0.795
3517.98	0.802
3527.28	0.808
3536.57	0.818
3545.87	0.824
3555.17	0.825
3564.47	0.832
3573.76	0.836
3583.06	0.839
3592.36	0.842
3601.66	0.852
3610.95	0.86
3620.25	0.861
3629.55	0.863
3638.85	0.869
3648.14	0.868
3657.44	0.865
3666.74	0.864
3676.04	0.863
3685.33	0.864
3694.63	0.865
3703.93	0.869
3713.23	0.869
3722.52	0.864
3731.82	0.862
3741.12	0.861
3750.42	0.862
3759.71	0.865
3769.01	0.865
3778.31	0.865
3787.61	0.864
3796.9	0.859
3806.2	0.852
3815.5	0.849
3824.8	0.849
3834.09	0.849
3843.39	0.848
3852.69	0.847
3861.99	0.845
3871.28	0.847
3880.58	0.847
3889.88	0.848
3899.18	0.848
3908.47	0.848
3917.77	0.849
3927.07	0.849
3936.37	0.849
3945.66	0.849
3954.96	0.849
3964.26	0.849
3973.56	0.849
3982.85	0.849
3992.15	0.849
4001.45	0.849
