Infrared Spectrum: THIAZOLE, 5-ACETAMIDO-2-(METHYLTHIO)-
Formula: C6 H8 N2 O S2
CAS: 89532-61-6
State: SOLID (KBr PELLET)
Melting point: 143 C
Class: COBLENTZ
Instrument: Not specified, most likely a prism, grating, or hybrid spectrometer.
Sampling: TRANSMISSION
Resolution: 4
Origin: TENNESSEE EASTMAN COMPANY, RESEARCH LABORATORIES
MICROMETERS	TRANSMITTANCE
2.02	0.851
2.06098	0.851
2.10195	0.851
2.14293	0.851
2.18391	0.852
2.22488	0.852
2.26586	0.854
2.30684	0.858
2.34781	0.861
2.38879	0.87
2.42977	0.875
2.47074	0.882
2.51172	0.883
2.5527	0.883
2.59367	0.888
2.63465	0.897
2.67562	0.9
2.7166	0.899
2.75758	0.837
2.79855	0.784
2.83953	0.743
2.88051	0.712
2.92148	0.699
2.96246	0.738
3.00344	0.75
3.04441	0.702
3.08539	0.528
3.12637	0.384
3.16734	0.275
3.20832	0.394
3.2493	0.364
3.29027	0.405
3.33125	0.242
3.37223	0.203
3.4132	0.311
3.45418	0.417
3.49516	0.4
3.53613	0.502
3.57711	0.528
3.61809	0.671
3.65906	0.709
3.70004	0.777
3.74101	0.796
3.78199	0.832
3.82297	0.852
3.86394	0.873
3.90492	0.878
3.9459	0.888
3.98687	0.9
4.02785	0.905
4.06883	0.923
4.1098	0.926
4.15078	0.936
4.19176	0.938
4.23273	0.938
4.27371	0.94
4.31469	0.941
4.35566	0.943
4.39664	0.945
4.43762	0.947
4.47859	0.95
4.51957	0.957
4.56055	0.96
4.60152	0.962
4.6425	0.962
4.68348	0.962
4.72445	0.965
4.76543	0.967
4.8064	0.97
4.84738	0.97
4.88836	0.97
4.92933	0.97
4.97031	0.97
5.01129	0.974
5.05226	0.974
5.09324	0.972
5.13422	0.972
5.17519	0.976
5.21617	0.977
5.25715	0.981
5.29812	0.977
5.3391	0.979
5.38008	0.979
5.42105	0.979
5.46203	0.981
5.50301	0.981
5.54398	0.974
5.58496	0.965
5.62594	0.962
5.66691	0.962
5.70789	0.945
5.74887	0.904
5.78984	0.911
5.83082	0.878
5.87179	0.798
5.91277	0.41
5.95375	0.054
5.99472	0.194
6.0357	0.49
6.07668	0.564
6.11765	0.601
6.15863	0.577
6.19961	0.528
6.24058	0.519
6.28156	0.273
6.32254	0.071
6.36351	0.061
6.40449	0.302
6.44547	0.61
6.48644	0.724
6.52742	0.758
6.5684	0.529
6.60937	0.252
6.65035	0.459
6.69133	0.593
6.7323	0.671
6.77328	0.692
6.81426	0.683
6.85523	0.647
6.89621	0.574
6.93718	0.442
6.97816	0.413
7.01914	0.413
7.06011	0.341
7.10109	0.328
7.14207	0.635
7.18304	0.647
7.22402	0.548
7.265	0.285
7.30597	0.145
7.34695	0.475
7.38793	0.666
7.4289	0.724
7.46988	0.736
7.51086	0.652
7.55183	0.526
7.59281	0.678
7.63379	0.565
7.67476	0.299
7.71574	0.056
7.75672	0.102
7.79769	0.162
7.83867	0.252
7.87965	0.483
7.92062	0.67
7.9616	0.777
8.00257	0.841
8.04355	0.864
8.08453	0.863
8.1255	0.834
8.16648	0.892
8.20746	0.914
8.24843	0.924
8.28941	0.931
8.33039	0.938
8.37136	0.935
8.41234	0.876
8.45332	0.941
8.49429	0.958
8.53527	0.96
8.57625	0.958
8.61722	0.941
8.6582	0.89
8.69918	0.661
8.74015	0.798
8.78113	0.928
8.82211	0.955
8.86308	0.962
8.90406	0.96
8.94504	0.938
8.98601	0.96
9.02699	0.969
9.06796	0.97
9.10894	0.974
9.14992	0.974
9.19089	0.976
9.23187	0.976
9.27285	0.955
9.31382	0.825
9.3548	0.382
9.39578	0.475
9.43675	0.806
9.47773	0.863
9.51871	0.866
9.55968	0.846
9.60066	0.801
9.64164	0.764
9.68261	0.803
9.72359	0.837
9.76457	0.851
9.80554	0.851
9.84652	0.788
9.8875	0.704
9.92847	0.726
9.96945	0.801
10.0104	0.851
10.0514	0.873
10.0924	0.892
10.1334	0.902
10.1743	0.904
10.2153	0.902
10.2563	0.856
10.2973	0.723
10.3382	0.497
10.3792	0.553
10.4202	0.411
10.4612	0.427
10.5021	0.767
10.5431	0.861
10.5841	0.902
10.6251	0.916
10.666	0.933
10.707	0.947
10.748	0.953
10.789	0.957
10.83	0.958
10.8709	0.962
10.9119	0.96
10.9529	0.96
10.9939	0.96
11.0348	0.96
11.0758	0.96
11.1168	0.96
11.1578	0.96
11.1987	0.96
11.2397	0.96
11.2807	0.958
11.3217	0.957
11.3627	0.957
11.4036	0.955
11.4446	0.947
11.4856	0.945
11.5266	0.945
11.5675	0.945
11.6085	0.945
11.6495	0.945
11.6905	0.945
11.7314	0.943
11.7724	0.938
11.8134	0.933
11.8544	0.926
11.8953	0.921
11.9363	0.911
11.9773	0.9
12.0183	0.892
12.0593	0.88
12.1002	0.861
12.1412	0.841
12.1822	0.805
12.2232	0.747
12.2641	0.613
12.3051	0.324
12.3461	0.138
12.3871	0.304
12.428	0.639
12.469	0.774
12.51	0.832
12.551	0.852
12.5919	0.864
12.6329	0.866
12.6739	0.864
12.7149	0.856
12.7559	0.846
12.7968	0.835
12.8378	0.818
12.8788	0.803
12.9198	0.791
12.9607	0.776
13.0017	0.755
13.0427	0.723
13.0837	0.687
13.1246	0.661
13.1656	0.649
13.2066	0.646
13.2476	0.651
13.2885	0.661
13.3295	0.673
13.3705	0.69
13.4115	0.705
13.4525	0.717
13.4934	0.729
13.5344	0.738
13.5754	0.753
13.6164	0.76
13.6573	0.765
13.6983	0.77
13.7393	0.772
13.7803	0.772
13.8212	0.757
13.8622	0.695
13.9032	0.589
13.9442	0.541
13.9851	0.6
14.0261	0.647
14.0671	0.649
14.1081	0.642
14.1491	0.656
14.19	0.688
14.231	0.714
14.272	0.733
14.313	0.745
14.3539	0.757
14.3949	0.767
14.4359	0.774
14.4769	0.781
14.5178	0.793
14.5588	0.803
14.5998	0.81
14.6408	0.815
14.6818	0.818
14.7227	0.82
14.7637	0.818
14.8047	0.818
14.8457	0.818
14.8866	0.818
14.9276	0.813
14.9686	0.803
15.0096	0.774
15.0505	0.721
15.0915	0.634
15.1325	0.564
15.1735	0.526
15.2144	0.531
15.2554	0.598
15.2964	0.664
15.3374	0.705
15.3784	0.729
15.4193	0.745
15.4603	0.748
15.5013	0.752
15.5423	0.755
15.5832	0.755
15.6242	0.758
15.6652	0.755
15.7062	0.757
15.7471	0.757
15.7881	0.753
15.8291	0.752
15.8701	0.75
15.911	0.745
15.952	0.745
15.993	0.745
