Infrared Spectrum: UREA, 1-METHYL-3-(1,2,3,4-TETRAHYDRO-2,4-DIOXO-5-PYRIMIDINYL)-
Formula: C6 H8 N4 O3
CAS: 89533-45-9
State: SOLID (0.5 mg / 650 mg KBr DISC)
Class: COBLENTZ III
Instrument: PERKIN-ELMER 221 (GRATING)
Instrument parameters: FILTER AT 980 CM^-^1. GRATING 4000-1428 AND NaCl PRISM 1428-650 CM^-^1
Sampling: TRANSMISSION
Resolution: 4
Origin: SOUTHERN RESEARCH INSTITUTE
1/CM	TRANSMITTANCE
592.632	0.539
601.175	0.54
609.718	0.539
618.261	0.54
626.804	0.541
635.347	0.5493
643.891	0.588
652.434	0.6
660.977	0.5994
669.52	0.5798
678.063	0.5379
686.606	0.538
695.149	0.5568
703.692	0.6099
712.235	0.6324
720.778	0.6323
729.321	0.6327
737.865	0.6094
746.408	0.4046
754.951	0.522
763.494	0.4956
772.037	0.5146
780.58	0.5619
789.123	0.522
797.666	0.525
806.209	0.5259
814.752	0.533
823.295	0.5332
831.839	0.5314
840.382	0.5261
848.925	0.4577
857.468	0.4019
866.011	0.4228
874.554	0.4006
883.097	0.4803
891.64	0.5663
900.183	0.6334
908.726	0.6133
917.269	0.5749
925.813	0.7132
934.356	0.7303
942.899	0.732
951.442	0.7268
959.985	0.7228
968.528	0.7095
977.071	0.6803
985.614	0.764
994.157	0.6775
1002.7	0.6951
1011.24	0.707
1019.79	0.7032
1028.33	0.692
1036.87	0.6765
1045.42	0.6693
1053.96	0.6547
1062.5	0.6484
1071.05	0.647
1079.59	0.647
1088.13	0.6461
1096.67	0.6436
1105.22	0.6396
1113.76	0.631
1122.3	0.6171
1130.85	0.594
1139.39	0.5007
1147.93	0.3548
1156.48	0.3215
1165.02	0.5137
1173.56	0.535
1182.11	0.535
1190.65	0.535
1199.19	0.4962
1207.73	0.4043
1216.28	0.3054
1224.82	0.1623
1233.36	0.1117
1241.91	0.2611
1250.45	0.4087
1258.99	0.549
1267.54	0.5291
1276.08	0.4774
1284.62	0.4655
1293.17	0.4929
1301.71	0.5861
1310.25	0.607
1318.79	0.6
1327.34	0.5862
1335.88	0.481
1344.42	0.2718
1352.97	0.4132
1361.51	0.5607
1370.05	0.601
1378.6	0.594
1387.14	0.5493
1395.68	0.4937
1404.23	0.4284
1412.77	0.3064
1421.31	0.2691
1429.85	0.3524
1438.4	0.4035
1446.94	0.3055
1455.48	0.1851
1464.03	0.1207
1472.57	0.3097
1481.11	0.379
1489.66	0.381
1498.2	0.381
1506.74	0.362
1515.29	0.3507
1523.83	0.271
1532.37	0.2164
1540.91	0.1193
1549.46	0.0609
1558	0.041
1566.54	0.0562
1575.09	0.082
1583.63	0.1387
1592.17	0.1767
1600.72	0.2071
1609.26	0.1885
1617.8	0.1201
1626.35	0.0326
1634.89	0.024
1643.43	0.025
1651.98	0.0268
1660.52	0.0196
1669.06	0.0638
1677.6	0.0795
1686.15	0.0958
1694.69	0.1396
1703.23	0.0809
1711.78	0.0321
1720.32	0.0875
1728.86	0.129
1737.41	0.2055
1745.95	0.2099
1754.49	0.2203
1763.04	0.2511
1771.58	0.284
1780.12	0.3492
1788.66	0.4455
1797.21	0.5183
1805.75	0.5665
1814.29	0.6352
1822.84	0.7011
1831.38	0.7244
1839.92	0.7526
1848.47	0.7696
1857.01	0.7907
1865.55	0.807
1874.1	0.8174
1882.64	0.8324
1891.18	0.83
1899.72	0.835
1908.27	0.8483
1916.81	0.8543
1925.35	0.856
1933.9	0.855
1942.44	0.8538
1950.98	0.848
1959.53	0.848
1968.07	0.846
1976.61	0.846
1985.16	0.8451
1993.7	0.8449
2002.24	0.8508
2010.78	0.8537
2019.33	0.855
2027.87	0.855
2036.41	0.855
2044.96	0.8552
2053.5	0.8537
2062.04	0.854
2070.59	0.852
2079.13	0.852
2087.67	0.851
2096.22	0.85
2104.76	0.849
2113.3	0.8452
2121.85	0.843
2130.39	0.841
2138.93	0.8408
2147.47	0.843
2156.02	0.846
2164.56	0.8413
2173.1	0.8372
2181.65	0.833
2190.19	0.8322
2198.73	0.829
2207.28	0.827
2215.82	0.823
2224.36	0.822
2232.91	0.821
2241.45	0.818
2249.99	0.817
2258.53	0.818
2267.08	0.816
2275.62	0.8138
2284.16	0.812
2292.71	0.812
2301.25	0.81
2309.79	0.808
2318.34	0.801
2326.88	0.7923
2335.42	0.7813
2343.97	0.78
2352.51	0.7763
2361.05	0.775
2369.59	0.77
2378.14	0.7728
2386.68	0.77
2395.22	0.7672
2403.77	0.7613
2412.31	0.757
2420.85	0.756
2429.4	0.7543
2437.94	0.756
2446.48	0.757
2455.03	0.757
2463.57	0.7562
2472.11	0.7513
2480.65	0.7495
2489.2	0.754
2497.74	0.747
2506.28	0.742
2514.83	0.7353
2523.37	0.729
2531.91	0.725
2540.46	0.721
2549	0.7202
2557.54	0.714
2566.09	0.7092
2574.63	0.703
2583.17	0.702
2591.72	0.6992
2600.26	0.6962
2608.8	0.6912
2617.34	0.6852
2625.89	0.674
2634.43	0.6702
2642.97	0.6585
2651.52	0.6447
2660.06	0.6403
2668.6	0.6343
2677.15	0.632
2685.69	0.6235
2694.23	0.618
2702.78	0.6152
2711.32	0.6112
2719.86	0.6052
2728.4	0.5995
2736.95	0.5872
2745.49	0.5757
2754.03	0.56
2762.58	0.5452
2771.12	0.5293
2779.66	0.5123
2788.21	0.4808
2796.75	0.4522
2805.29	0.4008
2813.84	0.3568
2822.38	0.34
2830.92	0.3482
2839.46	0.4125
2848.01	0.432
2856.55	0.427
2865.09	0.4125
2873.64	0.388
2882.18	0.37
2890.72	0.365
2899.27	0.3633
2907.81	0.3592
2916.35	0.357
2924.9	0.359
2933.44	0.3562
2941.98	0.3485
2950.52	0.3372
2959.07	0.307
2967.61	0.3
2976.15	0.299
2984.7	0.2923
2993.24	0.2815
3001.78	0.2581
3010.33	0.2372
3018.87	0.2185
3027.41	0.2082
3035.96	0.207
3044.5	0.2088
3053.04	0.2537
3061.58	0.2822
3070.13	0.2923
3078.67	0.292
3087.21	0.294
3095.76	0.3007
3104.3	0.305
3112.84	0.303
3121.39	0.2962
3129.93	0.2843
3138.47	0.2598
3147.02	0.2427
3155.56	0.2253
3164.1	0.226
3172.65	0.289
3181.19	0.312
3189.73	0.313
3198.27	0.3178
3206.82	0.3317
3215.36	0.34
3223.9	0.3545
3232.45	0.3708
3240.99	0.377
3249.53	0.377
3258.08	0.376
3266.62	0.3702
3275.16	0.3592
3283.71	0.3435
3292.25	0.3233
3300.79	0.2975
3309.33	0.2725
3317.88	0.2472
3326.42	0.2125
3334.96	0.1808
3343.51	0.121
3352.05	0.0963
3360.59	0.084
3369.14	0.0848
3377.68	0.0923
3386.22	0.1328
3394.77	0.2464
3403.31	0.3103
3411.85	0.342
3420.39	0.3992
3428.94	0.4439
3437.48	0.4867
3446.02	0.5128
3454.57	0.5275
3463.11	0.5468
3471.65	0.5595
3480.2	0.5778
3488.74	0.584
3497.28	0.5888
3505.83	0.59
3514.37	0.5958
3522.91	0.5998
3531.45	0.6172
3540	0.629
3548.54	0.634
3557.08	0.6438
3565.63	0.6572
3574.17	0.666
3582.71	0.6748
3591.26	0.6872
3599.8	0.6938
3608.34	0.7078
3616.89	0.726
3625.43	0.73
3633.97	0.731
3642.52	0.7312
3651.06	0.732
3659.6	0.732
3668.14	0.731
3676.69	0.731
3685.23	0.73
3693.77	0.73
3702.32	0.7302
3710.86	0.73
3719.4	0.73
3727.95	0.7273
3736.49	0.729
3745.03	0.727
3753.58	0.727
3762.12	0.727
3770.66	0.726
3779.2	0.726
3787.75	0.7242
3796.29	0.723
3804.83	0.723
3813.38	0.7182
3821.92	0.716
3830.46	0.7132
3839.01	0.713
3847.55	0.713
3856.09	0.713
3864.64	0.712
3873.18	0.712
3881.72	0.709
3890.26	0.708
3898.81	0.709
