Infrared Spectrum: 6H-1,4-Diazepine, hexahydro-6-methyl-,
Formula: C6 H14 N2
CAS: 89582-17-2
State: LIQUID (NEAT)
Class: COBLENTZ III
Instrument: PERKIN-ELMER 21 (GRATING)
Instrument parameters: FILTER AT ABOUT 10 MICRONS
Path length: CAPILLARY
Resolution: 2
Origin: ABBOTT LABORATORIES
1/CM	TRANSMITTANCE
649	0.4266
658	0.4103
667	0.3993
676	0.3859
685	0.3648
694	0.3559
703	0.3542
712	0.3544
721	0.3577
730	0.3639
739	0.3804
748	0.3914
757	0.4116
766	0.4115
775	0.4066
784	0.414
793	0.4268
802	0.4574
811	0.4641
820	0.455
829	0.4825
838	0.5211
847	0.5974
856	0.6269
865	0.6261
874	0.6366
883	0.6338
892	0.5857
901	0.61
910	0.5965
919	0.5586
928	0.6252
937	0.684
946	0.6729
955	0.6247
964	0.6201
973	0.6456
982	0.6418
991	0.6758
1000	0.6691
1009	0.6442
1018	0.5889
1027	0.6493
1036	0.7346
1045	0.7372
1054	0.707
1063	0.6133
1072	0.7549
1081	0.7685
1090	0.7642
1099	0.7453
1108	0.6892
1117	0.6904
1126	0.6976
1135	0.6462
1144	0.5106
1153	0.2372
1162	0.2246
1171	0.4315
1180	0.6703
1189	0.754
1198	0.7528
1207	0.7232
1216	0.7208
1225	0.7452
1234	0.7252
1243	0.7293
1252	0.76
1261	0.7528
1270	0.7377
1279	0.7372
1288	0.7078
1297	0.6334
1306	0.6612
1315	0.6636
1324	0.5748
1333	0.3927
1342	0.5271
1351	0.5817
1360	0.5753
1369	0.6569
1378	0.6929
1387	0.7441
1396	0.7576
1405	0.7562
1414	0.7279
1423	0.5853
1432	0.4266
1441	0.3084
1450	0.2907
1459	0.445
1468	0.5972
1477	0.7011
1486	0.739
1495	0.7787
1504	0.8057
1513	0.822
1522	0.8275
1531	0.8284
1540	0.8283
1549	0.8275
1558	0.8315
1567	0.8376
1576	0.8386
1585	0.8389
1594	0.8387
1603	0.8384
1612	0.8374
1621	0.8364
1630	0.8355
1639	0.8348
1648	0.8342
1657	0.8354
1666	0.8408
1675	0.8513
1684	0.8623
1693	0.8707
1702	0.8756
1711	0.878
1720	0.8797
1729	0.8811
1738	0.8815
1747	0.8813
1756	0.8811
1765	0.881
1774	0.8809
1783	0.8808
1792	0.8807
1801	0.8805
1810	0.8803
1819	0.8801
1828	0.8798
1837	0.8796
1846	0.8795
1855	0.8793
1864	0.8792
1873	0.879
1882	0.879
1891	0.879
1900	0.879
1909	0.879
1918	0.8789
1927	0.8787
1936	0.8785
1945	0.8783
1954	0.8783
1963	0.8785
1972	0.8787
1981	0.8799
1990	0.8853
1999	0.8894
2008	0.8911
2017	0.8918
2026	0.8918
2035	0.8916
2044	0.8913
2053	0.8906
2062	0.8898
2071	0.889
2080	0.8881
2089	0.8873
2098	0.8866
2107	0.8859
2116	0.8852
2125	0.8844
2134	0.8838
2143	0.8833
2152	0.8829
2161	0.8824
2170	0.8821
2179	0.8815
2188	0.881
2197	0.8804
2206	0.88
2215	0.8794
2224	0.8789
2233	0.8784
2242	0.8779
2251	0.8775
2260	0.8777
2269	0.8779
2278	0.878
2287	0.8782
2296	0.8784
2305	0.8785
2314	0.8786
2323	0.8786
2332	0.8787
2341	0.8787
2350	0.8788
2359	0.879
2368	0.8792
2377	0.8794
2386	0.8796
2395	0.8798
2404	0.8799
2413	0.88
2422	0.8801
2431	0.8803
2440	0.8803
2449	0.8802
2458	0.8801
2467	0.8789
2476	0.8769
2485	0.8728
2494	0.8679
2503	0.8616
2512	0.8549
2521	0.8499
2530	0.8453
2539	0.8419
2548	0.8396
2557	0.8373
2566	0.832
2575	0.8225
2584	0.8099
2593	0.7979
2602	0.7858
2611	0.7721
2620	0.7564
2629	0.7429
2638	0.7264
2647	0.7075
2656	0.6899
2665	0.6675
2674	0.6445
2683	0.6218
2692	0.5917
2701	0.5566
2710	0.5219
2719	0.4865
2728	0.4732
2737	0.473
2746	0.4748
2755	0.4338
2764	0.3796
2773	0.3257
2782	0.2721
2791	0.2403
2800	0.2189
2809	0.2014
2818	0.1856
2827	0.174
2836	0.1643
2845	0.1535
2854	0.1419
2863	0.1311
2872	0.1224
2881	0.1167
2890	0.1116
2899	0.1098
2908	0.1107
2917	0.1144
2926	0.1422
2935	0.2536
2944	0.3747
2953	0.4951
2962	0.6147
2971	0.7463
2980	0.7716
2989	0.7879
2998	0.7988
3007	0.8061
3016	0.811
3025	0.8116
3034	0.812
3043	0.8123
3052	0.8119
3061	0.8107
3070	0.8085
3079	0.8062
3088	0.8028
3097	0.7977
3106	0.7919
3115	0.7848
3124	0.7772
3133	0.7665
3142	0.754
3151	0.7398
3160	0.723
3169	0.7025
3178	0.6785
3187	0.6422
3196	0.6054
3205	0.569
3214	0.5326
3223	0.4965
3232	0.4606
3241	0.4248
3250	0.4065
3259	0.4056
3268	0.428
3277	0.4714
3286	0.5146
3295	0.5575
3304	0.6002
3313	0.6427
3322	0.6849
3331	0.7265
3340	0.7455
3349	0.7737
3358	0.7981
3367	0.8098
3376	0.8181
3385	0.8245
3394	0.8308
3403	0.8371
3412	0.8424
3421	0.8468
3430	0.8512
3439	0.8554
3448	0.8595
3457	0.8635
3466	0.8668
3475	0.8699
3484	0.8725
3493	0.874
3502	0.8754
3511	0.8764
3520	0.8775
3529	0.8786
3538	0.8796
3547	0.8804
3556	0.8818
3565	0.8841
3574	0.8863
3583	0.8885
3592	0.8912
3601	0.8933
3610	0.8939
3619	0.8939
3628	0.8938
3637	0.8936
3646	0.8934
3655	0.8933
3664	0.8933
3673	0.8935
3682	0.8935
3691	0.8933
3700	0.893
3709	0.8927
3718	0.8923
3727	0.8921
3736	0.8918
3745	0.8915
3754	0.8912
3763	0.891
3772	0.8905
3781	0.89
3790	0.8894
3799	0.889
3808	0.8884
3817	0.8879
3826	0.8875
3835	0.887
3844	0.8866
3853	0.8861
3862	0.8856
3871	0.8852
3880	0.8847
3889	0.8843
3898	0.884
3907	0.8835
3916	0.8832
3925	0.8827
3934	0.8824
3943	0.882
3952	0.8819
3961	0.8818
3970	0.8817
3979	0.8816
3988	0.8815
3997	0.8815
