Infrared Spectrum: 2-NITRO-4-BROMO-BENZENE-SULFONAMIDE
Formula: C6 H5 N2 O4 S Br
CAS: 89581-41-9
State: SOLID (1.0% IN KBr PELLET)
Class: COBLENTZ
Instrument: Not specified, most likely a prism, grating, or hybrid spectrometer.
Sampling: TRANSMISSION
Path length: 0.0355 CM THICK
Resolution: 4
Origin: ANDERSON PHYSICAL LABORATORY
1/CM	TRANSMITTANCE
675.92	0.718
684.342	0.6142
692.763	0.5255
701.185	0.692
709.607	0.655
718.029	0.707
726.45	0.5618
734.872	0.904
743.294	0.875
751.716	0.6551
760.137	0.581
768.559	0.907
776.981	0.889
785.403	0.839
793.824	0.7661
802.246	0.721
810.668	0.607
819.089	0.493
827.511	0.463
835.933	0.818
844.355	0.736
852.776	0.5691
861.198	0.3972
869.62	0.3699
878.042	0.8139
886.463	0.952
894.885	0.8691
903.307	0.706
911.729	0.7251
920.15	0.386
928.572	0.725
936.994	0.911
945.415	0.826
953.837	0.959
962.259	0.95
970.681	0.926
979.102	0.907
987.524	0.899
995.946	0.886
1004.37	0.838
1012.79	0.851
1021.21	0.841
1029.63	0.8
1038.05	0.809
1046.48	0.778
1054.9	0.746
1063.32	0.709
1071.74	0.644
1080.16	0.52
1088.58	0.478
1097.01	0.3441
1105.43	0.7429
1113.85	0.754
1122.27	0.751
1130.69	0.692
1139.12	0.626
1147.54	0.539
1155.96	0.391
1164.38	0.418
1172.8	0.283
1181.22	0.338
1189.65	0.5859
1198.07	0.737
1206.49	0.74
1214.91	0.62
1223.33	0.701
1231.75	0.727
1240.18	0.709
1248.6	0.632
1257.02	0.515
1265.44	0.352
1273.86	0.3858
1282.28	0.667
1290.71	0.652
1299.13	0.613
1307.55	0.613
1315.97	0.46
1324.39	0.371
1332.82	0.371
1341.24	0.325
1349.66	0.245
1358.08	0.4639
1366.5	0.605
1374.92	0.644
1383.35	0.5231
1391.77	0.4489
1400.19	0.679
1408.61	0.55
1417.03	0.76
1425.45	0.875
1433.88	0.829
1442.3	0.79
1450.72	0.5692
1459.14	0.7279
1467.56	0.71
1475.98	0.536
1484.41	0.272
1492.83	0.404
1501.25	0.674
1509.67	0.721
1518.09	0.74
1526.51	0.6381
1534.94	0.3671
1543.36	0.3559
1551.78	0.791
1560.2	0.832
1568.62	0.716
1577.05	0.884
1585.47	0.865
1593.89	0.862
1602.31	0.689
1610.73	0.487
1619.15	0.7629
1627.58	0.889
1636	0.925
1644.42	0.947
1652.84	0.935
1661.26	0.952
1669.68	0.935
1678.11	0.935
1686.53	0.923
1694.95	0.919
1703.37	0.911
1711.79	0.929
1720.21	0.919
1728.64	0.908
1737.06	0.905
1745.48	0.914
1753.9	0.911
1762.32	0.91
1770.75	0.895
1779.17	0.89
1787.59	0.86
1796.01	0.895
1804.43	0.899
1812.85	0.889
1821.28	0.881
1829.7	0.887
1838.12	0.89
1846.54	0.89
1854.96	0.883
1863.38	0.877
1871.81	0.883
1880.23	0.88
1888.65	0.874
1897.07	0.872
1905.49	0.86
1913.91	0.85
1922.34	0.85
1930.76	0.844
1939.18	0.85
1947.6	0.862
1956.02	0.86
1964.45	0.856
1972.87	0.848
1981.29	0.844
1989.71	0.844
1998.13	0.844
2006.55	0.842
2014.98	0.842
2023.4	0.842
2031.82	0.842
2040.24	0.842
2048.66	0.841
2057.08	0.8384
2065.51	0.836
2073.93	0.8336
2082.35	0.833
2090.77	0.8316
2099.19	0.8296
2107.61	0.8277
2116.04	0.8232
2124.46	0.8195
2132.88	0.815
2141.3	0.815
2149.72	0.8122
2158.14	0.8107
2166.57	0.8069
2174.99	0.8038
2183.41	0.8003
2191.83	0.7999
2200.25	0.799
2208.68	0.797
2217.1	0.796
2225.52	0.794
2233.94	0.793
2242.36	0.7888
2250.78	0.7854
2259.21	0.784
2267.63	0.784
2276.05	0.784
2284.47	0.782
2292.89	0.7809
2301.31	0.7751
2309.74	0.7725
2318.16	0.77
2326.58	0.763
2335	0.76
2343.42	0.756
2351.84	0.7487
2360.27	0.742
2368.69	0.739
2377.11	0.741
2385.53	0.7442
2393.95	0.7509
2402.38	0.754
2410.8	0.752
2419.22	0.752
2427.64	0.751
2436.06	0.751
2444.48	0.7501
2452.91	0.7469
2461.33	0.7451
2469.75	0.743
2478.17	0.7438
2486.59	0.745
2495.01	0.746
2503.44	0.7458
2511.86	0.7442
2520.28	0.742
2528.7	0.7373
2537.12	0.7369
2545.54	0.736
2553.97	0.734
2562.39	0.734
2570.81	0.7339
2579.23	0.731
2587.65	0.7282
2596.07	0.7253
2604.5	0.724
2612.92	0.724
2621.34	0.724
2629.76	0.724
2638.18	0.722
2646.61	0.719
2655.03	0.7169
2663.45	0.715
2671.87	0.713
2680.29	0.7127
2688.71	0.712
2697.14	0.712
2705.56	0.712
2713.98	0.712
2722.4	0.71
2730.82	0.7075
2739.24	0.703
2747.67	0.7
2756.09	0.7
2764.51	0.698
2772.93	0.697
2781.35	0.695
2789.77	0.6945
2798.2	0.6913
2806.62	0.689
2815.04	0.688
2823.46	0.6856
2831.88	0.682
2840.31	0.68
2848.73	0.679
2857.15	0.6782
2865.57	0.677
2873.99	0.6742
2882.41	0.673
2890.84	0.673
2899.26	0.673
2907.68	0.673
2916.1	0.67
2924.52	0.6676
2932.94	0.6658
2941.37	0.6641
2949.79	0.664
2958.21	0.664
2966.63	0.6628
2975.05	0.6612
2983.47	0.6578
2991.9	0.6543
3000.32	0.6503
3008.74	0.6466
3017.16	0.6349
3025.58	0.6311
3034.01	0.6269
3042.43	0.6234
3050.85	0.6169
3059.27	0.6084
3067.69	0.5938
3076.11	0.5777
3084.54	0.574
3092.96	0.5755
3101.38	0.5775
3109.8	0.5825
3118.22	0.587
3126.64	0.5953
3135.07	0.6019
3143.49	0.6077
3151.91	0.6099
3160.33	0.61
3168.75	0.6091
3177.17	0.608
3185.6	0.6051
3194.02	0.6
3202.44	0.5928
3210.86	0.5809
3219.28	0.5742
3227.7	0.5606
3236.13	0.542
3244.55	0.514
3252.97	0.4709
3261.39	0.4416
3269.81	0.4378
3278.24	0.4719
3286.66	0.517
3295.08	0.5682
3303.5	0.5983
3311.92	0.6076
3320.34	0.6097
3328.77	0.611
3337.19	0.611
3345.61	0.6092
3354.03	0.6012
3362.45	0.5978
3370.87	0.594
3379.3	0.586
3387.72	0.5802
3396.14	0.5708
3404.56	0.5674
3412.98	0.565
3421.4	0.563
3429.83	0.5619
3438.25	0.557
3446.67	0.556
3455.09	0.554
3463.51	0.5541
3471.94	0.557
3480.36	0.558
3488.78	0.5597
3497.2	0.568
3505.62	0.571
3514.04	0.571
3522.47	0.572
3530.89	0.5739
3539.31	0.5742
3547.73	0.575
3556.15	0.5791
3564.57	0.5858
3573	0.5892
3581.42	0.5909
3589.84	0.592
3598.26	0.5929
3606.68	0.5952
3615.1	0.5993
3623.53	0.6047
3631.95	0.608
3640.37	0.61
3648.79	0.611
3657.21	0.611
3665.63	0.611
3674.06	0.6144
3682.48	0.6177
3690.9	0.619
3699.32	0.62
3707.74	0.62
3716.17	0.619
3724.59	0.6178
3733.01	0.617
3741.43	0.614
3749.85	0.6124
3758.27	0.611
3766.7	0.611
3775.12	0.611
3783.54	0.6107
3791.96	0.61
3800.38	0.61
3808.8	0.608
3817.23	0.6062
3825.65	0.603
3834.07	0.6012
3842.49	0.601
3850.91	0.5987
3859.33	0.598
3867.76	0.598
3876.18	0.598
3884.6	0.599
3893.02	0.599
3901.44	0.6017
3909.87	0.6039
3918.29	0.604
3926.71	0.604
3935.13	0.604
3943.55	0.604
3951.97	0.602
3960.4	0.6001
3968.82	0.599
3977.24	0.599
3985.66	0.5993
3994.08	0.601
4002.5	0.6033
