Infrared Spectrum: OXIME OF 5-ACETYL-4-METHYL-4-THIAZOLINE-2-THIONE
Formula: C6 H8 N2 O S2
CAS: 89691-87-2
State: SOLID (KBr PELLET)
Melting point: 215 C
Class: COBLENTZ
Instrument: Not specified, most likely a prism, grating, or hybrid spectrometer.
Sampling: TRANSMISSION
Resolution: 4
Origin: EASTMAN KODAK COMPANY, RESEARCH LABORATORIES, ROCHESTER, N.Y.
MICROMETERS	TRANSMITTANCE
2.04	0.262
2.07987	0.259
2.11973	0.262
2.1596	0.267
2.19946	0.268
2.23933	0.275
2.27919	0.278
2.31906	0.286
2.35892	0.298
2.39879	0.3
2.43866	0.304
2.47852	0.318
2.51839	0.319
2.55825	0.322
2.59812	0.331
2.63798	0.347
2.67785	0.347
2.71772	0.367
2.75758	0.367
2.79745	0.345
2.83731	0.339
2.87718	0.327
2.91704	0.308
2.95691	0.273
2.99677	0.196
3.03664	0.147
3.07651	0.147
3.11637	0.139
3.15624	0.145
3.1961	0.119
3.23597	0.086
3.27583	0.091
3.3157	0.075
3.35557	0.108
3.39543	0.16
3.4353	0.088
3.47516	0.086
3.51503	0.119
3.55489	0.159
3.59476	0.198
3.63462	0.237
3.67449	0.204
3.71436	0.24
3.75422	0.281
3.79409	0.309
3.83395	0.319
3.87382	0.34
3.91368	0.35
3.95355	0.359
3.99342	0.362
4.03328	0.377
4.07315	0.398
4.11301	0.418
4.15288	0.424
4.19274	0.426
4.23261	0.429
4.27247	0.434
4.31234	0.462
4.35221	0.478
4.39207	0.485
4.43194	0.498
4.4718	0.509
4.51167	0.516
4.55153	0.519
4.5914	0.527
4.63127	0.537
4.67113	0.545
4.711	0.547
4.75086	0.562
4.79073	0.568
4.83059	0.57
4.87046	0.578
4.91032	0.585
4.95019	0.598
4.99006	0.604
5.02992	0.621
5.06979	0.627
5.10965	0.637
5.14952	0.637
5.18938	0.64
5.22925	0.644
5.26912	0.649
5.30898	0.677
5.34885	0.685
5.38871	0.696
5.42858	0.698
5.46844	0.7
5.50831	0.709
5.54817	0.716
5.58804	0.722
5.62791	0.727
5.66777	0.742
5.70764	0.752
5.7475	0.75
5.78737	0.76
5.82723	0.772
5.8671	0.777
5.90697	0.783
5.94683	0.791
5.9867	0.795
6.02656	0.781
6.06643	0.781
6.10629	0.768
6.14616	0.672
6.18602	0.544
6.22589	0.54
6.26576	0.465
6.30562	0.475
6.34549	0.537
6.38535	0.559
6.42522	0.573
6.46508	0.608
6.50495	0.608
6.54482	0.621
6.58468	0.636
6.62455	0.66
6.66441	0.604
6.70428	0.419
6.74414	0.106
6.78401	0.1
6.82387	0.121
6.86374	0.183
6.90361	0.278
6.94347	0.327
6.98334	0.362
7.0232	0.419
7.06307	0.45
7.10293	0.527
7.1428	0.572
7.18267	0.598
7.22253	0.559
7.2624	0.283
7.30226	0.359
7.34213	0.488
7.38199	0.568
7.42186	0.606
7.46172	0.583
7.50159	0.514
7.54146	0.6
7.58132	0.668
7.62119	0.654
7.66105	0.493
7.70092	0.229
7.74078	0.254
7.78065	0.409
7.82051	0.555
7.86038	0.647
7.90025	0.652
7.94011	0.519
7.97998	0.129
8.01984	0.224
8.05971	0.4
8.09957	0.514
8.13944	0.59
8.17931	0.634
8.21917	0.68
8.25904	0.721
8.2989	0.752
8.33877	0.778
8.37863	0.795
8.4185	0.745
8.45836	0.709
8.49823	0.762
8.5381	0.798
8.57796	0.849
8.61783	0.875
8.65769	0.903
8.69756	0.913
8.73742	0.937
8.77729	0.954
8.81716	0.927
8.85702	0.878
8.89689	0.929
8.93675	0.977
8.97662	0.918
9.01648	0.593
9.05635	0.204
9.09621	0.245
9.13608	0.503
9.17595	0.64
9.21581	0.773
9.25568	0.854
9.29554	0.919
9.33541	0.967
9.37527	1
9.41514	1.009
9.45501	1.009
9.49487	0.973
9.53474	0.667
9.5746	0.304
9.61447	0.204
9.65433	0.113
9.6942	0.081
9.73406	0.14
9.77393	0.272
9.8138	0.391
9.85366	0.495
9.89353	0.552
9.93339	0.563
9.97326	0.524
10.0131	0.39
10.053	0.234
10.0929	0.188
10.1327	0.265
10.1726	0.385
10.2125	0.496
10.2523	0.575
10.2922	0.642
10.332	0.681
10.3719	0.727
10.4118	0.752
10.4516	0.778
10.4915	0.781
10.5314	0.745
10.5712	0.655
10.6111	0.619
10.651	0.678
10.6908	0.76
10.7307	0.832
10.7706	0.8
10.8104	0.449
10.8503	0.191
10.8902	0.309
10.93	0.514
10.9699	0.578
11.0098	0.401
11.0496	0.25
11.0895	0.336
11.1294	0.462
11.1692	0.532
11.2091	0.588
11.249	0.645
11.2888	0.701
11.3287	0.732
11.3686	0.759
11.4084	0.783
11.4483	0.808
11.4882	0.834
11.528	0.847
11.5679	0.86
11.6077	0.883
11.6476	0.896
11.6875	0.898
11.7273	0.904
11.7672	0.908
11.8071	0.906
11.8469	0.916
11.8868	0.922
11.9267	0.921
11.9665	0.921
12.0064	0.926
12.0463	0.921
12.0861	0.918
12.126	0.9
12.1659	0.885
12.2057	0.875
12.2456	0.859
12.2855	0.834
12.3253	0.79
12.3652	0.757
12.4051	0.706
12.4449	0.681
12.4848	0.67
12.5247	0.652
12.5645	0.616
12.6044	0.567
12.6443	0.508
12.6841	0.483
12.724	0.493
12.7639	0.54
12.8037	0.598
12.8436	0.65
12.8834	0.695
12.9233	0.724
12.9632	0.747
13.003	0.762
13.0429	0.778
13.0828	0.791
13.1226	0.795
13.1625	0.798
13.2024	0.803
13.2422	0.804
13.2821	0.796
13.322	0.772
13.3618	0.713
13.4017	0.622
13.4416	0.529
13.4814	0.531
13.5213	0.577
13.5612	0.618
13.601	0.626
13.6409	0.619
13.6808	0.6
13.7206	0.575
13.7605	0.55
13.8004	0.534
13.8402	0.521
13.8801	0.516
13.92	0.516
13.9598	0.516
13.9997	0.519
14.0396	0.531
14.0794	0.55
14.1193	0.573
14.1591	0.59
14.199	0.598
14.2389	0.591
14.2787	0.568
14.3186	0.486
14.3585	0.372
14.3983	0.291
14.4382	0.262
14.4781	0.295
14.5179	0.362
14.5578	0.432
14.5977	0.486
14.6375	0.545
14.6774	0.598
14.7173	0.639
14.7571	0.673
14.797	0.704
14.8369	0.731
14.8767	0.745
14.9166	0.749
14.9565	0.75
14.9963	0.754
15.0362	0.752
15.0761	0.744
15.1159	0.745
15.1558	0.75
15.1957	0.767
15.2355	0.795
15.2754	0.809
15.3153	0.814
15.3551	0.818
15.395	0.821
15.4348	0.821
15.4747	0.819
15.5146	0.819
15.5544	0.816
15.5943	0.816
15.6342	0.811
15.674	0.808
15.7139	0.803
15.7538	0.801
15.7936	0.798
15.8335	0.798
15.8734	0.798
15.9132	0.798
15.9531	0.798
15.993	0.796
