Infrared Spectrum: 2-(1-Naphthyl)-5-phenyl-1,3,4-oxadiazole
Formula: C 18 H 12 N 2 O
CAS: 897-18-7
State: gas
Origin: EPA-IR VAPOR PHASE LIBRARY
1/CM	ABSORBANCE
549.8	0.001566
559.445	0.0012386
569.09	0.002226
578.734	0.0009432
588.379	0.0010093
598.024	0.0007939
607.669	0.001666
617.313	0.0013212
626.958	0.0010363
636.603	0.0007629
646.248	0.001406
655.893	0.002596
665.537	0.002476
675.182	0.003416
684.827	0.006626
694.472	0.009946
704.116	0.006056
713.761	0.003846
723.406	0.003566
733.051	0.003556
742.695	0.003746
752.34	0.003696
761.985	0.008746
771.63	0.015936
781.275	0.006346
790.919	0.004926
800.564	0.008346
810.209	0.004176
819.854	0.002646
829.498	0.002036
839.143	0.0013035
848.788	0.0010482
858.433	0.0010769
868.078	0.001376
877.722	0.0011782
887.367	0.0013009
897.012	0.001406
906.657	0.0009761
916.301	0.0012015
925.946	0.0012417
935.591	0.001846
945.236	0.002466
954.88	0.002826
964.525	0.003346
974.17	0.004206
983.815	0.003656
993.46	0.003106
1003.1	0.005386
1012.75	0.007026
1022.39	0.005716
1032.04	0.003306
1041.68	0.002906
1051.33	0.002966
1060.97	0.005866
1070.62	0.006426
1080.26	0.004656
1089.91	0.005336
1099.55	0.002476
1109.2	0.001476
1118.84	0.002666
1128.49	0.002596
1138.13	0.003546
1147.78	0.002056
1157.42	0.002496
1167.07	0.002066
1176.71	0.002986
1186.36	0.003626
1196	0.004386
1205.64	0.004676
1215.29	0.004116
1224.93	0.002176
1234.58	0.003546
1244.22	0.005676
1253.87	0.004556
1263.51	0.002186
1273.16	0.002736
1282.8	0.002376
1292.45	0.0012945
1302.09	0.001406
1311.74	0.001566
1321.38	0.001546
1331.03	0.002196
1340.67	0.002016
1350.32	0.001856
1359.96	0.002096
1369.61	0.002086
1379.25	0.002076
1388.9	0.003096
1398.54	0.004236
1408.18	0.002806
1417.83	0.001966
1427.47	0.002016
1437.12	0.002666
1446.76	0.005086
1456.41	0.003666
1466.05	0.003016
1475.7	0.003766
1485.34	0.005776
1494.99	0.005876
1504.63	0.003986
1514.28	0.004146
1523.92	0.004826
1533.57	0.011036
1543.21	0.010266
1552.86	0.009536
1562.5	0.004206
1572.15	0.002646
1581.79	0.003186
1591.44	0.002676
1601.08	0.001756
1610.73	0.001676
1620.37	0.001526
1630.01	0.001113
1639.66	0.0011327
1649.3	0.0011677
1658.95	0.0012311
1668.59	0.0012606
1678.24	0.0011403
1687.88	0.0013415
1697.53	0.001406
1707.17	0.001526
1716.82	0.001436
1726.46	0.0011935
1736.11	0.0012152
1745.75	0.001297
1755.4	0.0013131
1765.04	0.001366
1774.69	0.0012733
1784.33	0.0010293
1793.98	0.0010999
1803.62	0.001556
1813.27	0.001376
1822.91	0.001516
1832.55	0.001476
1842.2	0.001224
1851.84	0.0011432
1861.49	0.0012235
1871.13	0.0012136
1880.78	0.001334
1890.42	0.0013167
1900.07	0.0013225
1909.71	0.001179
1919.36	0.001466
1929	0.001476
1938.65	0.001736
1948.29	0.0013202
1957.94	0.001406
1967.58	0.001376
1977.23	0.0008686
1986.87	0.0009706
1996.52	0.0007007
2006.16	0.0009838
2015.81	0.0006544
2025.45	0.0008002
2035.1	0.0008441
2044.74	0.0010701
2054.38	0.001008
2064.03	0.0009546
2073.67	0.0008559
2083.32	0.001028
2092.96	0.0010503
2102.61	0.0008699
2112.25	0.0008341
2121.9	0.000711
2131.54	0.0005921
2141.19	0.0009234
2150.83	0.0007885
2160.48	0.0006579
2170.12	0.0006895
2179.77	0.0006107
2189.41	0.000541
2199.06	0.0008861
2208.7	0.0006636
2218.35	0.000871
2227.99	0.0007543
2237.64	0.0007367
2247.28	0.0009681
2256.92	0.0008375
2266.57	0.0008276
2276.21	0.0006962
2285.86	0.0007146
2295.5	0.0006946
2305.15	0.0008699
2314.79	0.0007007
2324.44	0.0006072
2334.08	0.000669
2343.73	0.00085
2353.37	0.0007233
2363.02	0.000777
2372.66	0.0008461
2382.31	0.0008592
2391.95	0.0006604
2401.6	0.0008093
2411.24	0.0008977
2420.89	0.0007663
2430.53	0.000717
2440.18	0.0005445
2449.82	0.0006557
2459.47	0.0007178
2469.11	0.0006876
2478.75	0.0006009
2488.4	0.00043468
2498.04	0.0006744
2507.69	0.0008535
2517.33	0.0007127
2526.98	0.0010518
2536.62	0.0006857
2546.27	0.0007065
2555.91	0.0008249
2565.56	0.000816
2575.2	0.0007696
2584.85	0.0005392
2594.49	0.0007325
2604.14	0.000477
2613.78	0.0008516
2623.43	0.0009108
2633.07	0.0006243
2642.72	0.0005594
2652.36	0.0007916
2662.01	0.0007588
2671.65	0.0004859
2681.29	0.000225
2690.94	0.0006211
2700.58	0.0007379
2710.23	0.0004978
2719.87	0.0005296
2729.52	0.000585
2739.16	0.0003589
2748.81	0.0006721
2758.45	0.00041513
2768.1	0.00037093
2777.74	0.00033974
2787.39	0.0007323
2797.03	0.0005268
2806.68	0.000201
2816.32	0.0006117
2825.97	0.0007078
2835.61	0.00044539
2845.26	0.00044269
2854.9	0.0005926
2864.55	0.000137
2874.19	0.0005591
2883.84	0.0007136
2893.48	0.0008653
2903.12	0.0005426
2912.77	0.0005316
2922.41	0.0006302
2932.06	0.0008944
2941.7	0.0006954
2951.35	0.0006214
2960.99	0.0005659
2970.64	0.0008104
2980.28	0.0008788
2989.93	0.0005729
2999.57	0.0011966
3009.22	0.001416
3018.86	0.001836
3028.51	0.002066
3038.15	0.002276
3047.8	0.004196
3057.44	0.008796
3067.09	0.008446
3076.73	0.007076
3086.38	0.004526
3096.02	0.004166
3105.67	0.002586
3115.31	0.001736
3124.95	0.001142
3134.6	0.0007962
3144.24	0.0007202
3153.89	0.0006816
3163.53	0.0009062
3173.18	0.000495
3182.82	0.0006094
3192.47	0.0005124
3202.11	0.00023
3211.76	0.00034521
3221.4	0.0006477
3231.05	0.0006565
3240.69	0.000574
3250.34	0.000482
3259.98	0.0008149
3269.63	0.00036118
3279.27	0.0005647
3288.92	0.0006283
3298.56	0.000739
3308.21	0.000285
3317.85	0.0007756
3327.49	0.0008651
3337.14	0.0005954
3346.78	0.0008471
3356.43	0.0006429
3366.07	0.0009826
3375.72	0.00042732
3385.36	0.0008246
3395.01	0.0008509
3404.65	0.0010485
3414.3	0.0009644
3423.94	0.0008582
3433.59	0.0006098
3443.23	0.0005121
3452.88	0.0009406
3462.52	0.00038863
3472.17	0.0004739
3481.81	0.0002635
3491.46	0.0008553
3501.1	0.0005737
3510.75	0.0007547
3520.39	0.0006337
3530.04	0.0006223
3539.68	0.0005804
3549.32	0.0007376
3558.97	0.00033846
3568.61	0.0005284
3578.26	0.0007391
3587.9	0.0010277
3597.55	0.0007951
3607.19	0.0010652
3616.84	0.001356
3626.48	0.0006721
3636.13	0.00042181
3645.77	0.0008896
3655.42	0.0006333
3665.06	0.0009722
3674.71	0.0008053
3684.35	0.0011769
3694	0.0009387
3703.64	0.0007616
3713.29	0.0010296
3722.93	0.0009814
3732.58	0.0005341
3742.22	0.0012303
3751.86	0.0006539
3761.51	0.0010227
3771.15	0.0010342
3780.8	0.0011727
3790.44	0.0012863
3800.09	0.0004567
3809.73	0.0004489
3819.38	0.0009062
3829.02	0.0007312
3838.67	0.000903
3848.31	0.0006648
3857.96	0.0009917
3867.6	0.0010316
3877.25	0.0005836
3886.89	0.0005765
3896.54	0.0010861
3906.18	0.0004664
3915.83	0.0009246
3925.47	0.0010092
3935.12	0.0002932
3944.76	0.0005042
3954.41	0.000817
3964.05	0.0006309
3973.69	0.0008385
3983.34	0.0002864
3992.98	0.0007394
