Infrared Spectrum: 2-Fluoro-4-(trifluoromethyl)benzaldehyde
Formula: C 8 H 4 F 4 O
CAS: 89763-93-9
State: gas
Origin: EPA-IR VAPOR PHASE LIBRARY
1/CM	ABSORBANCE
549.8	0.00526
559.445	0.00506
569.09	0.001133
578.734	0.0019133
588.379	0.000939
598.024	0.0020143
607.669	0.0022127
617.313	0.00277
626.958	0.00284
636.603	0.00295
646.248	0.00309
655.893	0.00578
665.537	0.00406
675.182	0.00332
684.827	0.00335
694.472	0.00359
704.116	0.00351
713.761	0.00524
723.406	0.00447
733.051	0.00651
742.695	0.02271
752.34	0.01448
761.985	0.00304
771.63	0.00431
781.275	0.00556
790.919	0.01018
800.564	0.01894
810.209	0.01444
819.854	0.01173
829.498	0.01524
839.143	0.01377
848.788	0.00697
858.433	0.0051
868.078	0.0089
877.722	0.01726
887.367	0.02017
897.012	0.01885
906.657	0.033
916.301	0.04597
925.946	0.02232
935.591	0.00995
945.236	0.00557
954.88	0.00307
964.525	0.00385
974.17	0.0039
983.815	0.00351
993.46	0.00309
1003.1	0.00384
1012.75	0.00353
1022.39	0.00414
1032.04	0.0044
1041.68	0.00812
1051.33	0.01514
1060.97	0.03943
1070.62	0.02612
1080.26	0.01066
1089.91	0.00983
1099.55	0.01269
1109.2	0.01774
1118.84	0.01891
1128.49	0.02503
1138.13	0.04498
1147.78	0.09658
1157.42	0.16214
1167.07	0.12666
1176.71	0.14824
1186.36	0.1183
1196	0.07175
1205.64	0.07294
1215.29	0.04961
1224.93	0.0238
1234.58	0.0102
1244.22	0.00653
1253.87	0.00873
1263.51	0.01368
1273.16	0.00986
1282.8	0.00871
1292.45	0.01227
1302.09	0.02007
1311.74	0.03486
1321.38	0.11187
1331.03	0.19074
1340.67	0.07704
1350.32	0.02052
1359.96	0.01111
1369.61	0.00771
1379.25	0.00997
1388.9	0.02126
1398.54	0.03267
1408.18	0.03048
1417.83	0.04379
1427.47	0.06809
1437.12	0.0521
1446.76	0.02184
1456.41	0.00912
1466.05	0.00575
1475.7	0.00622
1485.34	0.00974
1494.99	0.01895
1504.63	0.01888
1514.28	0.00809
1523.92	0.00462
1533.57	0.00344
1543.21	0.00392
1552.86	0.00348
1562.5	0.00468
1572.15	0.00916
1581.79	0.01283
1591.44	0.00985
1601.08	0.00748
1610.73	0.0101
1620.37	0.01319
1630.01	0.01234
1639.66	0.00832
1649.3	0.0051
1658.95	0.00405
1668.59	0.00398
1678.24	0.00511
1687.88	0.00694
1697.53	0.01601
1707.17	0.04929
1716.82	0.09087
1726.46	0.06096
1736.11	0.02854
1745.75	0.01192
1755.4	0.00582
1765.04	0.00477
1774.69	0.00409
1784.33	0.00432
1793.98	0.00398
1803.62	0.00289
1813.27	0.00244
1822.91	0.0021599
1832.55	0.00264
1842.2	0.00242
1851.84	0.002247
1861.49	0.0022681
1871.13	0.0021135
1880.78	0.0017721
1890.42	0.0018767
1900.07	0.00238
1909.71	0.0020059
1919.36	0.0027
1929	0.00244
1938.65	0.0019842
1948.29	0.0017721
1957.94	0.0022341
1967.58	0.0018471
1977.23	0.0017805
1986.87	0.0017124
1996.52	0.00144
2006.16	0.0016289
2015.81	0.0015918
2025.45	0.0015994
2035.1	0.0017175
2044.74	0.0016092
2054.38	0.0016758
2064.03	0.0018257
2073.67	0.0022183
2083.32	0.0015531
2092.96	0.0015534
2102.61	0.001781
2112.25	0.0017248
2121.9	0.0017759
2131.54	0.0017144
2141.19	0.0016111
2150.83	0.00098
2160.48	0.0014939
2170.12	0.00128321
2179.77	0.001147
2189.41	0.00096
2199.06	0.0012359
2208.7	0.001093
2218.35	0.0014906
2227.99	0.0014839
2237.64	0.0017126
2247.28	0.0016663
2256.92	0.0014952
2266.57	0.0014433
2276.21	0.00128414
2285.86	0.0014177
2295.5	0.0020128
2305.15	0.0019606
2314.79	0.0018716
2324.44	0.0016861
2334.08	0.0018376
2343.73	0.0017549
2353.37	0.0012164
2363.02	0.0017301
2372.66	0.0015597
2382.31	0.0019061
2391.95	0.0014536
2401.6	0.00136929
2411.24	0.0014538
2420.89	0.0011987
2430.53	0.001125
2440.18	0.0014411
2449.82	0.000976
2459.47	0.00128384
2469.11	0.00133753
2478.75	0.001139
2488.4	0.0012035
2498.04	0.0015946
2507.69	0.001152
2517.33	0.0012259
2526.98	0.00134956
2536.62	0.0012639
2546.27	0.0014151
2555.91	0.001104
2565.56	0.000918
2575.2	0.001045
2584.85	0.0016313
2594.49	0.0012616
2604.14	0.0012458
2613.78	0.000852
2623.43	0.0012223
2633.07	0.0017201
2642.72	0.0015367
2652.36	0.0014889
2662.01	0.001252
2671.65	0.0016521
2681.29	0.0014607
2690.94	0.0016395
2700.58	0.0018705
2710.23	0.00235
2719.87	0.00391
2729.52	0.00351
2739.16	0.00355
2748.81	0.0041
2758.45	0.00623
2768.1	0.00614
2777.74	0.00464
2787.39	0.00285
2797.03	0.00255
2806.68	0.00267
2816.32	0.00303
2825.97	0.00262
2835.61	0.00383
2845.26	0.00462
2854.9	0.01025
2864.55	0.02068
2874.19	0.01752
2883.84	0.00622
2893.48	0.00358
2903.12	0.00255
2912.77	0.0017129
2922.41	0.0014331
2932.06	0.0018972
2941.7	0.0015395
2951.35	0.0021424
2960.99	0.0013995
2970.64	0.001147
2980.28	0.00137678
2989.93	0.001086
2999.57	0.0019733
3009.22	0.0014441
3018.86	0.0012063
3028.51	0.001105
3038.15	0.0019398
3047.8	0.0016532
3057.44	0.0020089
3067.09	0.001756
3076.73	0.00128422
3086.38	0.0016671
3096.02	0.0016466
3105.67	0.0016849
3115.31	0.0017947
3124.95	0.001046
3134.6	0.0020223
3144.24	0.00130093
3153.89	0.000999
3163.53	0.0011923
3173.18	0.0012567
3182.82	0.0015386
3192.47	0.0015082
3202.11	0.00128568
3211.76	0.0015081
3221.4	0.001086
3231.05	0.001108
3240.69	0.00132372
3250.34	0.0013143
3259.98	0.0014452
3269.63	0.00130596
3279.27	0.000448
3288.92	0.00132485
3298.56	0.001117
3308.21	0.0013992
3317.85	0.0017041
3327.49	0.001167
3337.14	0.000563
3346.78	0.000531
3356.43	0.000716
3366.07	0.0018849
3375.72	0.001115
3385.36	0.0017153
3395.01	0.0014984
3404.65	0.00252
3414.3	0.00381
3423.94	0.00236
3433.59	0.001156
3443.23	0.0018787
3452.88	0.00099
3462.52	0.000422
3472.17	0.001002
3481.81	0.000753
3491.46	0.000902
3501.1	0.000789
3510.75	0.0015101
3520.39	0.000597
3530.04	0.0015374
3539.68	0.0016603
3549.32	0.001152
3558.97	0.000779
3568.61	0.0017519
3578.26	0.001177
3587.9	0.000456
3597.55	0.000873
3607.19	0.0017135
3616.84	0.000802
3626.48	0.0019582
3636.13	0.0016542
3645.77	0.0016817
3655.42	0.0017529
3665.06	0.000841
3674.71	0.0018456
3684.35	0.0014938
3694	0.0015247
3703.64	0.0018128
3713.29	0.001146
3722.93	0.00129089
3732.58	0.000464
3742.22	0.000794
3751.86	0.000978
3761.51	0.0012006
3771.15	0.0016964
3780.8	0.0016353
3790.44	0.0016771
3800.09	0.00137467
3809.73	0.001088
3819.38	0.0020465
3829.02	0.0016696
3838.67	0.0015769
3848.31	0.00028
3857.96	0.000603
3867.6	0.00138083
3877.25	0.0017234
3886.89	0.001579
3896.54	0.000822
3906.18	0.0013967
3915.83	0.001152
3925.47	0.000353
3935.12	0.000903
3944.76	0.000419
3954.41	0.0012359
3964.05	0.0015531
3973.69	0.0015156
3983.34	0.00130735
3992.98	0.00135777
