Infrared Spectrum: ISO-BUTYL ISO-CYANATO ACETATE
Formula: C7 H11 N O3
CAS: 89775-61-1
State: LIQUID
Boiling point: 76 C AT 6 mmHg
Class: COBLENTZ
Instrument: Not specified, most likely a prism, grating, or hybrid spectrometer.
Sampling: TRANSMISSION
Path length: CAPILLARY CELL
Resolution: 4
Origin: EASTMAN KODAK COMPANY, RESEARCH LABORATORIES, ROCHESTER, N.Y.
MICROMETERS	TRANSMITTANCE
2.021	0.914
2.05611	0.908
2.09121	0.908
2.12632	0.905
2.16142	0.901
2.19653	0.905
2.23163	0.898
2.26674	0.879
2.30184	0.882
2.33695	0.901
2.37205	0.905
2.40716	0.9
2.44227	0.894
2.47737	0.896
2.51248	0.905
2.54758	0.907
2.58269	0.908
2.61779	0.912
2.6529	0.917
2.688	0.901
2.72311	0.87
2.75821	0.863
2.79332	0.887
2.82842	0.9
2.86353	0.901
2.89864	0.889
2.93374	0.88
2.96885	0.873
3.00395	0.882
3.03906	0.886
3.07416	0.882
3.10927	0.875
3.14437	0.851
3.17948	0.821
3.21458	0.856
3.24969	0.882
3.2848	0.865
3.3199	0.831
3.35501	0.217
3.39011	0.343
3.42522	0.509
3.46032	0.497
3.49543	0.712
3.53053	0.816
3.56564	0.851
3.60074	0.866
3.63585	0.872
3.67095	0.866
3.70606	0.872
3.74117	0.882
3.77627	0.882
3.81138	0.891
3.84648	0.889
3.88159	0.889
3.91669	0.894
3.9518	0.894
3.9869	0.893
4.02201	0.893
4.05711	0.882
4.09222	0.851
4.12733	0.816
4.16243	0.758
4.19754	0.719
4.23264	0.702
4.26775	0.669
4.30285	0.472
4.33796	0.038
4.37306	0.029
4.40817	0.052
4.44327	0.257
4.47838	0.427
4.51348	0.465
4.54859	0.549
4.5837	0.661
4.6188	0.723
4.65391	0.786
4.68901	0.814
4.72412	0.824
4.75922	0.83
4.79433	0.873
4.82943	0.894
4.86454	0.905
4.89964	0.917
4.93475	0.926
4.96986	0.922
5.00496	0.922
5.04007	0.931
5.07517	0.933
5.11028	0.931
5.14538	0.922
5.18049	0.921
5.21559	0.924
5.2507	0.926
5.2858	0.921
5.32091	0.919
5.35602	0.915
5.39112	0.908
5.42623	0.894
5.46133	0.872
5.49644	0.845
5.53154	0.823
5.56665	0.775
5.60175	0.614
5.63686	0.453
5.67196	0.124
5.70707	0.091
5.74217	0.182
5.77728	0.479
5.81239	0.683
5.84749	0.756
5.8826	0.812
5.9177	0.849
5.95281	0.875
5.98791	0.887
6.02302	0.893
6.05812	0.896
6.09323	0.901
6.12833	0.901
6.16344	0.903
6.19855	0.91
6.23365	0.908
6.26876	0.912
6.30386	0.919
6.33897	0.908
6.37407	0.908
6.40918	0.903
6.44428	0.907
6.47939	0.901
6.51449	0.896
6.5496	0.889
6.5847	0.875
6.61981	0.87
6.65492	0.861
6.69002	0.84
6.72513	0.77
6.76023	0.612
6.79534	0.432
6.83044	0.464
6.86555	0.523
6.90065	0.649
6.93576	0.73
6.97086	0.691
7.00597	0.591
7.04108	0.612
7.07618	0.707
7.11129	0.697
7.14639	0.534
7.1815	0.544
7.2166	0.462
7.25171	0.301
7.28681	0.423
7.32192	0.455
7.35702	0.42
7.39213	0.485
7.42723	0.605
7.46234	0.665
7.49745	0.667
7.53255	0.695
7.56766	0.756
7.60276	0.793
7.63787	0.784
7.67297	0.733
7.70808	0.695
7.74318	0.649
7.77829	0.537
7.81339	0.436
7.8485	0.416
7.88361	0.404
7.91871	0.408
7.95382	0.408
7.98892	0.378
8.02403	0.316
8.05913	0.236
8.09424	0.157
8.12934	0.084
8.16445	0.061
8.19955	0.057
8.23466	0.052
8.26977	0.054
8.30487	0.103
8.33998	0.175
8.37508	0.292
8.41019	0.385
8.44529	0.397
8.4804	0.415
8.5155	0.495
8.55061	0.523
8.58571	0.548
8.62082	0.563
8.65592	0.583
8.69103	0.609
8.72614	0.656
8.76124	0.697
8.79635	0.751
8.83145	0.781
8.86656	0.803
8.90166	0.833
8.93677	0.854
8.97187	0.859
9.00698	0.854
9.04208	0.854
9.07719	0.856
9.1123	0.879
9.1474	0.886
9.18251	0.893
9.21761	0.898
9.25272	0.901
9.28782	0.901
9.32293	0.905
9.35803	0.905
9.39314	0.898
9.42824	0.896
9.46335	0.896
9.49845	0.894
9.53356	0.894
9.56867	0.884
9.60377	0.873
9.63888	0.863
9.67398	0.849
9.70909	0.828
9.74419	0.775
9.7793	0.718
9.8144	0.639
9.84951	0.541
9.88461	0.425
9.91972	0.311
9.95483	0.231
9.98993	0.154
10.025	0.152
10.0601	0.197
10.0952	0.283
10.1304	0.383
10.1655	0.467
10.2006	0.562
10.2357	0.639
10.2708	0.691
10.3059	0.721
10.341	0.723
10.3761	0.725
10.4112	0.723
10.4463	0.719
10.4814	0.674
10.5165	0.586
10.5516	0.523
10.5867	0.556
10.6218	0.632
10.6569	0.698
10.692	0.714
10.7271	0.712
10.7623	0.714
10.7974	0.723
10.8325	0.723
10.8676	0.725
10.9027	0.735
10.9378	0.733
10.9729	0.702
11.008	0.654
11.0431	0.616
11.0782	0.593
11.1133	0.567
11.1484	0.595
11.1835	0.656
11.2186	0.705
11.2537	0.744
11.2888	0.772
11.3239	0.807
11.359	0.831
11.3941	0.849
11.4293	0.861
11.4644	0.875
11.4995	0.884
11.5346	0.898
11.5697	0.908
11.6048	0.914
11.6399	0.912
11.675	0.917
11.7101	0.915
11.7452	0.908
11.7803	0.905
11.8154	0.901
11.8505	0.893
11.8856	0.891
11.9207	0.882
11.9558	0.873
11.9909	0.838
12.026	0.791
12.0612	0.756
12.0963	0.767
12.1314	0.789
12.1665	0.835
12.2016	0.861
12.2367	0.886
12.2718	0.889
12.3069	0.894
12.342	0.901
12.3771	0.9
12.4122	0.886
12.4473	0.88
12.4824	0.879
12.5175	0.88
12.5526	0.887
12.5877	0.893
12.6228	0.891
12.6579	0.896
12.693	0.896
12.7282	0.896
12.7633	0.894
12.7984	0.889
12.8335	0.887
12.8686	0.882
12.9037	0.868
12.9388	0.87
12.9739	0.861
13.009	0.866
13.0441	0.861
13.0792	0.854
13.1143	0.844
13.1494	0.83
13.1845	0.816
13.2196	0.805
13.2547	0.789
13.2898	0.774
13.3249	0.753
13.3601	0.737
13.3952	0.707
13.4303	0.686
13.4654	0.661
13.5005	0.64
13.5356	0.618
13.5707	0.604
13.6058	0.586
13.6409	0.579
13.676	0.567
13.7111	0.567
13.7462	0.555
13.7813	0.556
13.8164	0.556
13.8515	0.556
13.8866	0.553
13.9217	0.546
13.9568	0.544
13.9919	0.549
14.0271	0.558
14.0622	0.563
14.0973	0.565
14.1324	0.581
14.1675	0.588
14.2026	0.602
14.2377	0.614
14.2728	0.621
14.3079	0.626
14.343	0.635
14.3781	0.647
14.4132	0.646
14.4483	0.644
14.4834	0.625
14.5185	0.639
14.5536	0.647
14.5887	0.654
14.6238	0.654
14.659	0.658
14.6941	0.663
14.7292	0.665
14.7643	0.667
14.7994	0.663
14.8345	0.663
14.8696	0.667
14.9047	0.667
14.9398	0.663
14.9749	0.653
15.01	0.642
15.0451	0.64
15.0802	0.642
15.1153	0.637
15.1504	0.633
15.1855	0.626
15.2206	0.618
15.2557	0.609
15.2908	0.605
15.326	0.6
15.3611	0.593
15.3962	0.583
15.4313	0.574
15.4664	0.563
15.5015	0.553
15.5366	0.537
15.5717	0.528
15.6068	0.525
15.6419	0.523
15.677	0.514
15.7121	0.511
15.7472	0.506
15.7823	0.504
15.8174	0.499
15.8525	0.495
15.8876	0.493
15.9227	0.485
15.9579	0.488
15.993	0.488
