Infrared Spectrum: 6-CHLORO-7-SULFAMYL-3(4H)-OXO-1,2,4-BENZOTHIADIAZINE-1,1-DIOXIDE
Formula: C7 H6 Cl N3 O5 S2
CAS: 89813-56-9
State: SOLID (NUJOL MULL)
Class: COBLENTZ
Instrument: PERKIN-ELMER
Sampling: TRANSMISSION
Resolution: 4
Origin: ABBOTT LABORATORIES - WASHBURN
MICROMETERS	TRANSMITTANCE
2.014	0.418
2.04824	0.421
2.08249	0.427
2.11673	0.4371
2.15098	0.444
2.18522	0.452
2.21947	0.4591
2.25371	0.4681
2.28796	0.471
2.3222	0.471
2.35645	0.4751
2.39069	0.4811
2.42494	0.493
2.45918	0.504
2.49343	0.5112
2.52767	0.5231
2.56192	0.531
2.59616	0.54
2.63041	0.5482
2.66465	0.56
2.6989	0.569
2.73314	0.5779
2.76739	0.5862
2.80163	0.5951
2.83588	0.61
2.87012	0.6289
2.90437	0.6336
2.93861	0.5193
2.97286	0.317
3.0071	0.4535
3.04135	0.3912
3.07559	0.2994
3.10984	0.2889
3.14408	0.3099
3.17833	0.2909
3.21257	0.2829
3.24682	0.2601
3.28106	0.255
3.31531	0.264
3.34955	0.1768
3.3838	0.0542
3.41804	0.034
3.45229	0.0394
3.48653	0.0541
3.52078	0.137
3.55502	0.4587
3.58927	0.4834
3.62351	0.5181
3.65776	0.5349
3.692	0.5479
3.72625	0.5691
3.76049	0.5811
3.79474	0.5979
3.82898	0.6099
3.86323	0.617
3.89747	0.626
3.93172	0.6339
3.96596	0.6438
4.00021	0.662
4.03445	0.667
4.0687	0.6741
4.10294	0.6791
4.13719	0.686
4.17143	0.691
4.20568	0.696
4.23992	0.696
4.27417	0.692
4.30841	0.698
4.34266	0.7064
4.3769	0.7132
4.41115	0.72
4.44539	0.725
4.47964	0.7322
4.51388	0.7372
4.54813	0.742
4.58237	0.749
4.61662	0.753
4.65086	0.7592
4.68511	0.765
4.71935	0.768
4.7536	0.773
4.78784	0.7771
4.82209	0.782
4.85633	0.785
4.89058	0.7852
4.92482	0.7891
4.95907	0.795
4.99331	0.799
5.02756	0.802
5.0618	0.8069
5.09605	0.811
5.13029	0.8138
5.16454	0.813
5.19878	0.8122
5.23303	0.8186
5.26727	0.826
5.30152	0.83
5.33576	0.833
5.37001	0.833
5.40425	0.837
5.4385	0.838
5.47274	0.842
5.50699	0.8272
5.54123	0.8262
5.57548	0.8261
5.60972	0.796
5.64397	0.7507
5.67821	0.6782
5.71246	0.5341
5.7467	0.3818
5.78095	0.2231
5.81519	0.1614
5.84944	0.1663
5.88368	0.3085
5.91793	0.4397
5.95217	0.5394
5.98642	0.5891
6.02066	0.6413
6.05491	0.676
6.08915	0.7013
6.1234	0.708
6.15764	0.699
6.19189	0.6654
6.22613	0.3251
6.26038	0.3162
6.29462	0.4528
6.32887	0.3954
6.36311	0.4618
6.39736	0.5435
6.4316	0.5969
6.46585	0.608
6.50009	0.5819
6.53434	0.4745
6.56858	0.4448
6.60283	0.546
6.63707	0.5903
6.67132	0.6221
6.70556	0.622
6.73981	0.5454
6.77405	0.3652
6.8083	0.259
6.84254	0.2026
6.87679	0.2271
6.91103	0.3097
6.94528	0.4259
6.97952	0.5291
7.01377	0.6096
7.04801	0.619
7.08226	0.6133
7.1165	0.6065
7.15075	0.594
7.18499	0.5643
7.21924	0.4802
7.25348	0.29
7.28773	0.1682
7.32197	0.2023
7.35622	0.299
7.39046	0.3274
7.42471	0.2137
7.45895	0.173
7.4932	0.1909
7.52744	0.1573
7.56169	0.0985
7.59593	0.1022
7.63018	0.1773
7.66442	0.2245
7.69867	0.2379
7.73291	0.3165
7.76716	0.3854
7.8014	0.4516
7.83565	0.4731
7.86989	0.5138
7.90414	0.524
7.93838	0.5392
7.97263	0.5842
8.00687	0.6173
8.04112	0.629
8.07536	0.5772
8.10961	0.4274
8.14385	0.5418
8.1781	0.6075
8.21234	0.6349
8.24659	0.6483
8.28083	0.6583
8.31508	0.6598
8.34932	0.621
8.38357	0.5479
8.41781	0.4032
8.45206	0.2199
8.4863	0.1624
8.52055	0.1599
8.55479	0.2008
8.58904	0.1923
8.62328	0.154
8.65753	0.1817
8.69177	0.2641
8.72602	0.3407
8.76026	0.4154
8.79451	0.4581
8.82875	0.4751
8.863	0.478
8.89724	0.5134
8.93149	0.5739
8.96573	0.605
8.99998	0.6308
9.03422	0.636
9.06847	0.5974
9.10271	0.437
9.13696	0.479
9.1712	0.5689
9.20545	0.6159
9.23969	0.6322
9.27394	0.6403
9.30818	0.6486
9.34243	0.653
9.37667	0.651
9.41092	0.6484
9.44516	0.655
9.47941	0.6649
9.51365	0.6769
9.5479	0.6838
9.58214	0.689
9.61639	0.6924
9.65063	0.6913
9.68488	0.6828
9.71912	0.6316
9.75337	0.5082
9.78761	0.3388
9.82186	0.3019
9.8561	0.3779
9.89035	0.458
9.92459	0.5466
9.95884	0.6092
9.99308	0.6418
10.0273	0.674
10.0616	0.7079
10.0958	0.7109
10.1301	0.7147
10.1643	0.7152
10.1986	0.7064
10.2328	0.6854
10.267	0.6531
10.3013	0.5789
10.3355	0.5203
10.3698	0.4996
10.404	0.5035
10.4383	0.5355
10.4725	0.5782
10.5068	0.613
10.541	0.6362
10.5752	0.644
10.6095	0.653
10.6437	0.655
10.678	0.6281
10.7122	0.5712
10.7465	0.5253
10.7807	0.4921
10.815	0.4793
10.8492	0.4937
10.8835	0.5168
10.9177	0.5451
10.9519	0.56
10.9862	0.562
11.0204	0.5091
11.0547	0.3898
11.0889	0.5009
11.1232	0.5794
11.1574	0.6119
11.1917	0.627
11.2259	0.6428
11.2601	0.6546
11.2944	0.6647
11.3286	0.6747
11.3629	0.6852
11.3971	0.687
11.4314	0.6865
11.4656	0.6784
11.4999	0.6576
11.5341	0.533
11.5684	0.4087
11.6026	0.4747
11.6368	0.6176
11.6711	0.6552
11.7053	0.6723
11.7396	0.6889
11.7738	0.7028
11.8081	0.7078
11.8423	0.7126
11.8766	0.715
11.9108	0.7175
11.945	0.716
11.9793	0.7171
12.0135	0.718
12.0478	0.7121
12.082	0.7051
12.1163	0.6851
12.1505	0.6629
12.1848	0.6129
12.219	0.5571
12.2533	0.5081
12.2875	0.4759
12.3217	0.469
12.356	0.4951
12.3902	0.5332
12.4245	0.5775
12.4587	0.6162
12.493	0.6299
12.5272	0.6403
12.5615	0.6505
12.5957	0.6624
12.6299	0.6674
12.6642	0.672
12.6984	0.6713
12.7327	0.6627
12.7669	0.6526
12.8012	0.6268
12.8354	0.6028
12.8697	0.576
12.9039	0.5481
12.9382	0.5235
12.9724	0.5066
13.0066	0.4956
13.0409	0.492
13.0751	0.4926
13.1094	0.505
13.1436	0.5225
13.1779	0.5502
13.2121	0.5797
13.2464	0.593
13.2806	0.6143
13.3148	0.627
13.3491	0.6348
13.3833	0.639
13.4176	0.641
13.4518	0.643
13.4861	0.6392
13.5203	0.6293
13.5546	0.6093
13.5888	0.5938
13.6231	0.588
13.6573	0.6044
13.6915	0.6256
13.7258	0.6419
13.76	0.6573
13.7943	0.6673
13.8285	0.6742
13.8628	0.677
13.897	0.6792
13.9313	0.682
13.9655	0.6889
13.9997	0.6938
14.034	0.6958
14.0682	0.694
14.1025	0.6833
14.1367	0.65
14.171	0.5619
14.2052	0.5103
14.2395	0.503
14.2737	0.5409
14.308	0.5751
14.3422	0.5954
14.3764	0.5899
14.4107	0.5158
14.4449	0.4373
14.4792	0.4277
14.5134	0.4668
14.5477	0.5261
14.5819	0.5663
14.6162	0.5872
14.6504	0.6024
14.6846	0.6134
14.7189	0.624
14.7531	0.6283
14.7874	0.6315
14.8216	0.634
14.8559	0.634
14.8901	0.634
14.9244	0.634
14.9586	0.632
14.9929	0.627
15.0271	0.619
15.0613	0.6097
15.0956	0.593
15.1298	0.5591
15.1641	0.5098
15.1983	0.495
15.2326	0.495
15.2668	0.4997
15.3011	0.5311
15.3353	0.543
