Infrared Spectrum: UREA, 1-(2-HYDROXYETHYL)-1-NITROSO-3-(1,2,3,4-TETRAHYDRO-2,4-DIOXO-5-PYRIMIDINYL)-
Formula: C7 H9 N5 O5
CAS: 89854-43-3
State: SOLID (0.7 mg / 500 mg KBr DISC)
Class: COBLENTZ III
Instrument: PERKIN-ELMER 221 (GRATING)
Instrument parameters: FILTERS AT 2490, 980 CM ^-^1, GRATING FOR 4000-1428 CM^-^1, NaCl PRISM FOR 1428-650 CM^-^1
Sampling: TRANSMISSION
Resolution: 4
Origin: SOUTHERN RES. INSTITUTE
1/CM	TRANSMITTANCE
609.183	0.604
618.419	0.604
627.654	0.578
636.89	0.563
646.126	0.613
655.361	0.709
664.597	0.753
673.833	0.773
683.068	0.771
692.304	0.764
701.54	0.757
710.775	0.734
720.011	0.707
729.247	0.666
738.482	0.537
747.718	0.536
756.954	0.599
766.189	0.685
775.425	0.677
784.661	0.671
793.896	0.667
803.132	0.66
812.368	0.628
821.603	0.597
830.839	0.657
840.075	0.638
849.31	0.548
858.546	0.624
867.782	0.651
877.017	0.649
886.253	0.648
895.489	0.68
904.724	0.754
913.96	0.758
923.196	0.758
932.431	0.749
941.667	0.691
950.903	0.649
960.139	0.661
969.374	0.605
978.61	0.41
987.846	0.433
997.081	0.558
1006.32	0.616
1015.55	0.709
1024.79	0.707
1034.02	0.66
1043.26	0.607
1052.5	0.624
1061.73	0.737
1070.97	0.741
1080.2	0.675
1089.44	0.551
1098.67	0.508
1107.91	0.688
1117.14	0.745
1126.38	0.746
1135.62	0.736
1144.85	0.695
1154.09	0.716
1163.32	0.751
1172.56	0.751
1181.79	0.752
1191.03	0.751
1200.27	0.723
1209.5	0.698
1218.74	0.584
1227.97	0.51
1237.21	0.507
1246.44	0.679
1255.68	0.744
1264.92	0.764
1274.15	0.738
1283.39	0.709
1292.62	0.707
1301.86	0.75
1311.09	0.763
1320.33	0.76
1329.57	0.745
1338.8	0.719
1348.04	0.67
1357.27	0.65
1366.51	0.569
1375.74	0.594
1384.98	0.644
1394.22	0.619
1403.45	0.582
1412.69	0.552
1421.92	0.469
1431.16	0.428
1440.39	0.473
1449.63	0.513
1458.86	0.453
1468.1	0.312
1477.34	0.258
1486.57	0.348
1495.81	0.392
1505.04	0.308
1514.28	0.306
1523.51	0.472
1532.75	0.569
1541.99	0.472
1551.22	0.319
1560.46	0.25
1569.69	0.375
1578.93	0.635
1588.16	0.706
1597.4	0.704
1606.64	0.693
1615.87	0.648
1625.11	0.573
1634.34	0.53
1643.58	0.439
1652.81	0.335
1662.05	0.216
1671.29	0.134
1680.52	0.073
1689.76	0.184
1698.99	0.305
1708.23	0.355
1717.46	0.333
1726.7	0.217
1735.93	0.162
1745.17	0.159
1754.41	0.28
1763.64	0.448
1772.88	0.551
1782.11	0.62
1791.35	0.654
1800.58	0.67
1809.82	0.728
1819.06	0.764
1828.29	0.788
1837.53	0.797
1846.76	0.798
1856	0.814
1865.23	0.838
1874.47	0.851
1883.71	0.859
1892.94	0.866
1902.18	0.872
1911.41	0.875
1920.65	0.882
1929.88	0.884
1939.12	0.885
1948.36	0.885
1957.59	0.885
1966.83	0.885
1976.06	0.884
1985.3	0.884
1994.53	0.884
2003.77	0.883
2013.01	0.883
2022.24	0.884
2031.48	0.884
2040.71	0.885
2049.95	0.886
2059.18	0.885
2068.42	0.884
2077.65	0.884
2086.89	0.884
2096.13	0.883
2105.36	0.882
2114.6	0.882
2123.83	0.882
2133.07	0.883
2142.3	0.883
2151.54	0.881
2160.78	0.881
2170.01	0.88
2179.25	0.879
2188.48	0.878
2197.72	0.878
2206.95	0.877
2216.19	0.876
2225.43	0.876
2234.66	0.876
2243.9	0.876
2253.13	0.876
2262.37	0.875
2271.6	0.875
2280.84	0.874
2290.08	0.872
2299.31	0.869
2308.55	0.865
2317.78	0.862
2327.02	0.859
2336.25	0.856
2345.49	0.855
2354.72	0.852
2363.96	0.849
2373.2	0.847
2382.43	0.846
2391.67	0.844
2400.9	0.841
2410.14	0.838
2419.37	0.835
2428.61	0.833
2437.85	0.831
2447.08	0.83
2456.32	0.83
2465.55	0.831
2474.79	0.833
2484.02	0.833
2493.26	0.833
2502.5	0.83
2511.73	0.828
2520.97	0.826
2530.2	0.823
2539.44	0.821
2548.67	0.818
2557.91	0.816
2567.15	0.813
2576.38	0.808
2585.62	0.8
2594.85	0.795
2604.09	0.792
2613.32	0.787
2622.56	0.782
2631.79	0.774
2641.03	0.766
2650.27	0.761
2659.5	0.757
2668.74	0.752
2677.97	0.747
2687.21	0.741
2696.44	0.735
2705.68	0.731
2714.92	0.726
2724.15	0.72
2733.39	0.714
2742.62	0.708
2751.86	0.696
2761.09	0.68
2770.33	0.664
2779.57	0.646
2788.8	0.629
2798.04	0.6
2807.27	0.566
2816.51	0.542
2825.74	0.53
2834.98	0.562
2844.22	0.575
2853.45	0.574
2862.69	0.586
2871.92	0.593
2881.16	0.593
2890.39	0.591
2899.63	0.581
2908.87	0.573
2918.1	0.563
2927.34	0.56
2936.57	0.552
2945.81	0.543
2955.04	0.527
2964.28	0.501
2973.51	0.494
2982.75	0.488
2991.99	0.481
3001.22	0.468
3010.46	0.461
3019.69	0.469
3028.93	0.479
3038.16	0.496
3047.4	0.525
3056.64	0.539
3065.87	0.545
3075.11	0.546
3084.34	0.541
3093.58	0.514
3102.81	0.488
3112.05	0.469
3121.29	0.468
3130.52	0.483
3139.76	0.498
3148.99	0.502
3158.23	0.501
3167.46	0.498
3176.7	0.496
3185.94	0.494
3195.17	0.492
3204.41	0.48
3213.64	0.466
3222.88	0.46
3232.11	0.456
3241.35	0.456
3250.58	0.459
3259.82	0.463
3269.06	0.467
3278.29	0.477
3287.53	0.48
3296.76	0.482
3306	0.481
3315.23	0.479
3324.47	0.472
3333.71	0.464
3342.94	0.424
3352.18	0.333
3361.41	0.361
3370.65	0.446
3379.88	0.471
3389.12	0.482
3398.36	0.488
3407.59	0.495
3416.83	0.497
3426.06	0.499
3435.3	0.503
3444.53	0.507
3453.77	0.517
3463.01	0.523
3472.24	0.535
3481.48	0.552
3490.71	0.56
3499.95	0.568
3509.18	0.582
3518.42	0.588
3527.66	0.601
3536.89	0.617
3546.13	0.633
3555.36	0.648
3564.6	0.663
3573.83	0.682
3583.07	0.699
3592.3	0.717
3601.54	0.74
3610.78	0.758
3620.01	0.769
3629.25	0.792
3638.48	0.801
3647.72	0.804
3656.95	0.808
3666.19	0.81
3675.43	0.811
3684.66	0.813
3693.9	0.814
3703.13	0.814
3712.37	0.813
3721.6	0.811
3730.84	0.808
3740.08	0.806
3749.31	0.809
3758.55	0.812
3767.78	0.814
3777.02	0.814
3786.25	0.811
3795.49	0.808
3804.73	0.808
3813.96	0.806
3823.2	0.805
3832.43	0.803
3841.67	0.802
3850.9	0.801
3860.14	0.8
3869.37	0.801
3878.61	0.801
3887.85	0.801
3897.08	0.801
3906.32	0.801
3915.55	0.801
3924.79	0.801
3934.02	0.802
3943.26	0.802
3952.5	0.803
3961.73	0.804
3970.97	0.804
3980.2	0.805
3989.44	0.803
3998.67	0.801
4007.91	0.798
