Infrared Spectrum: 5-Pyrimidinecarboxylic acid, 4-amino-2-(ethylthio)-
Formula: C7 H9 N3 O2 S
CAS: 89853-87-2
State: SOLID (SPLIT MULL), FLUOROLUBE FOR 3800-1330 CM^-^1, NUJOL FOR 1330-460 CM^-^1
Class: COBLENTZ III
Instrument: DOW KBr FOREPRISM-GRATING
Instrument parameters: BLAZED AT 3.5, 12.0, 20.0 MICRON AND CHANGED AT 5.0, 7.5, 14.9 MICRON
Sampling: TRANSMISSION
Resolution: 2
Origin: DOW CHEMICAL COMPANY
1/CM	TRANSMITTANCE
3814	0.6262
3805	0.6277
3796	0.6295
3787	0.6307
3778	0.6317
3769	0.6333
3760	0.6349
3751	0.6367
3742	0.6414
3733	0.6404
3724	0.6424
3715	0.6448
3706	0.6472
3697	0.6497
3688	0.6521
3679	0.6551
3670	0.658
3661	0.6608
3652	0.6637
3643	0.6667
3634	0.6697
3625	0.6725
3616	0.6758
3607	0.679
3598	0.6822
3589	0.6856
3580	0.6888
3571	0.6917
3562	0.6946
3553	0.6974
3544	0.7005
3535	0.7037
3526	0.7069
3517	0.7101
3508	0.7126
3499	0.7151
3490	0.7171
3481	0.719
3472	0.7204
3463	0.7211
3454	0.7201
3445	0.7134
3436	0.663
3427	0.5703
3418	0.562
3409	0.4896
3400	0.3425
3391	0.3893
3382	0.5118
3373	0.587
3364	0.6214
3355	0.6467
3346	0.6655
3337	0.6715
3328	0.6671
3319	0.6521
3310	0.628
3301	0.6058
3292	0.5747
3283	0.5315
3274	0.5154
3265	0.5324
3256	0.5662
3247	0.5896
3238	0.6012
3229	0.6031
3220	0.5377
3211	0.5107
3202	0.4923
3193	0.4758
3184	0.4616
3175	0.4504
3166	0.441
3157	0.4306
3148	0.4206
3139	0.4167
3130	0.4203
3121	0.4331
3112	0.4485
3103	0.4588
3094	0.4646
3085	0.4664
3076	0.4609
3067	0.4483
3058	0.4527
3049	0.4612
3040	0.4674
3031	0.4716
3022	0.4764
3013	0.481
3004	0.4839
2995	0.4639
2986	0.4598
2977	0.455
2968	0.459
2959	0.4746
2950	0.4778
2941	0.4696
2932	0.4645
2923	0.4688
2914	0.4771
2905	0.4856
2896	0.4928
2887	0.4972
2878	0.4967
2869	0.4974
2860	0.4994
2851	0.5022
2842	0.5056
2833	0.5094
2824	0.5133
2815	0.5174
2806	0.5216
2797	0.5264
2788	0.5314
2779	0.5362
2770	0.5414
2761	0.5462
2752	0.5512
2743	0.5572
2734	0.5632
2725	0.5687
2716	0.5724
2707	0.5733
2698	0.5701
2689	0.5669
2680	0.5658
2671	0.5649
2662	0.5655
2653	0.5686
2644	0.5715
2635	0.5717
2626	0.5682
2617	0.5636
2608	0.5605
2599	0.5598
2590	0.5637
2581	0.5665
2572	0.5678
2563	0.5679
2554	0.5667
2545	0.564
2536	0.5606
2527	0.5562
2518	0.553
2509	0.551
2500	0.5495
2491	0.549
2482	0.5483
2473	0.5471
2464	0.5469
2455	0.5481
2446	0.5507
2437	0.5537
2428	0.559
2419	0.5651
2410	0.5721
2401	0.579
2392	0.5843
2383	0.5896
2374	0.5949
2365	0.6007
2356	0.6067
2347	0.6134
2338	0.6217
2329	0.6309
2320	0.6408
2311	0.6514
2302	0.6618
2293	0.6718
2284	0.6814
2275	0.6906
2266	0.6993
2257	0.7065
2248	0.7145
2239	0.7222
2230	0.7301
2221	0.7378
2212	0.7458
2203	0.7539
2194	0.7618
2185	0.7697
2176	0.7758
2167	0.7821
2158	0.7884
2149	0.7946
2140	0.8008
2131	0.8069
2122	0.8133
2113	0.819
2104	0.8245
2095	0.83
2086	0.8354
2077	0.8408
2068	0.8461
2059	0.8506
2050	0.8543
2041	0.8578
2032	0.86
2023	0.8636
2014	0.8662
2005	0.8685
1996	0.8231
1987	0.8287
1978	0.8294
1969	0.8301
1960	0.8308
1951	0.831
1942	0.8253
1933	0.8251
1924	0.8258
1915	0.8275
1906	0.8251
1897	0.8241
1888	0.8236
1879	0.8217
1870	0.8185
1861	0.8157
1852	0.8125
1843	0.8111
1834	0.8118
1825	0.8158
1816	0.8218
1807	0.8288
1798	0.8367
1789	0.8444
1780	0.851
1771	0.8577
1762	0.8618
1753	0.8618
1744	0.8577
1735	0.8477
1726	0.8255
1717	0.7141
1708	0.6285
1699	0.4684
1690	0.2422
1681	0.2034
1672	0.225
1663	0.2996
1654	0.3668
1645	0.3793
1636	0.1709
1627	0.1361
1618	0.2275
1609	0.3589
1600	0.4904
1591	0.5664
1582	0.3554
1573	0.2834
1564	0.2946
1555	0.3968
1546	0.4631
1537	0.3682
1528	0.3187
1519	0.3994
1510	0.5155
1501	0.5676
1492	0.5994
1483	0.6091
1474	0.5946
1465	0.5815
1456	0.6335
1447	0.5967
1438	0.6922
1429	0.6348
1420	0.6031
1411	0.695
1402	0.7692
1393	0.7801
1384	0.4731
1375	0.3128
1366	0.2515
1357	0.3876
1348	0.3896
1339	0.4921
1330	0.5649
1321	0.5308
1312	0.5429
1303	0.4352
1294	0.3464
1285	0.2918
1276	0.3688
1267	0.2585
1258	0.2889
1249	0.2744
1240	0.2134
1231	0.2333
1222	0.3836
1213	0.4553
1204	0.1121
1195	0.081
1186	0.1299
1177	0.2089
1168	0.2799
1159	0.3534
1150	0.427
1141	0.4881
1132	0.5274
1123	0.5528
1114	0.5641
1105	0.509
1096	0.5017
1087	0.6019
1078	0.6504
1069	0.683
1060	0.6531
1051	0.5048
1042	0.6265
1033	0.6087
1024	0.6795
1015	0.7124
1006	0.7311
997	0.7407
988	0.7235
979	0.5775
970	0.2449
961	0.5402
952	0.612
943	0.6421
934	0.6631
925	0.6844
916	0.6997
907	0.7054
898	0.7165
889	0.7326
880	0.7518
871	0.7668
862	0.7781
853	0.7865
844	0.7962
835	0.805
826	0.8099
817	0.8071
808	0.459
799	0.7756
790	0.6315
781	0.4354
772	0.6881
763	0.5733
754	0.6075
745	0.7843
736	0.7893
727	0.7725
718	0.5656
709	0.7686
700	0.8285
691	0.8295
682	0.8403
673	0.7925
664	0.7765
655	0.8071
646	0.8111
637	0.8036
628	0.7917
619	0.764
610	0.6785
601	0.3053
592	0.476
583	0.5312
574	0.4559
565	0.6244
556	0.7197
547	0.7448
538	0.7593
529	0.765
520	0.5953
511	0.7593
502	0.7868
493	0.7988
484	0.8051
475	0.8069
466	0.8065
