Infrared Spectrum: 6-METHYL, 2-METHYLMERCAPTO-4-OXO-1,3,3a,7-TETRAZAINDENE
Formula: C7 H8 N4 O S
CAS: 89853-03-2
State: SOLID (KBr PRESSING)
Melting point: 284-286 C
Class: COBLENTZ
Instrument: Not specified, most likely a prism, grating, or hybrid spectrometer.
Sampling: TRANSMISSION
Resolution: 4
Origin: EASTMAN KODAK COMPANY, RESEARCH LABORATORIES, ROCHESTER, N.Y.
MICROMETERS	TRANSMITTANCE
2.035	0.668
2.07021	0.667
2.10542	0.667
2.14064	0.674
2.17585	0.677
2.21106	0.681
2.24627	0.684
2.28149	0.688
2.3167	0.688
2.35191	0.691
2.38712	0.695
2.42233	0.696
2.45755	0.696
2.49276	0.7
2.52797	0.705
2.56318	0.716
2.59839	0.728
2.63361	0.726
2.66882	0.722
2.70403	0.698
2.73924	0.639
2.77446	0.503
2.80967	0.398
2.84488	0.337
2.88009	0.339
2.9153	0.36
2.95052	0.416
2.98573	0.461
3.02094	0.508
3.05615	0.526
3.09137	0.52
3.12658	0.52
3.16179	0.52
3.197	0.498
3.23221	0.44
3.26743	0.358
3.30264	0.36
3.33785	0.362
3.37306	0.336
3.40827	0.294
3.44349	0.28
3.4787	0.311
3.51391	0.283
3.54912	0.29
3.58434	0.311
3.61955	0.351
3.65476	0.365
3.68997	0.402
3.72518	0.433
3.7604	0.477
3.79561	0.533
3.83082	0.562
3.86603	0.601
3.90124	0.618
3.93646	0.642
3.97167	0.677
4.00688	0.705
4.04209	0.716
4.07731	0.731
4.11252	0.74
4.14773	0.745
4.18294	0.75
4.21815	0.764
4.25337	0.777
4.28858	0.79
4.32379	0.787
4.359	0.78
4.39422	0.789
4.42943	0.79
4.46464	0.796
4.49985	0.799
4.53506	0.801
4.57028	0.804
4.60549	0.804
4.6407	0.803
4.67591	0.801
4.71112	0.803
4.74634	0.803
4.78155	0.806
4.81676	0.811
4.85197	0.815
4.88719	0.815
4.9224	0.815
4.95761	0.815
4.99282	0.811
5.02803	0.81
5.06325	0.811
5.09846	0.815
5.13367	0.818
5.16888	0.822
5.2041	0.822
5.23931	0.82
5.27452	0.815
5.30973	0.817
5.34494	0.813
5.38016	0.82
5.41537	0.811
5.45058	0.822
5.48579	0.817
5.521	0.801
5.55622	0.801
5.59143	0.806
5.62664	0.803
5.66185	0.797
5.69707	0.787
5.73228	0.749
5.76749	0.501
5.8027	0.32
5.83791	0.229
5.87313	0.217
5.90834	0.202
5.94355	0.168
5.97876	0.146
6.01397	0.141
6.04919	0.156
6.0844	0.181
6.11961	0.149
6.15482	0.12
6.19004	0.121
6.22525	0.141
6.26046	0.094
6.29567	0.067
6.33088	0.062
6.3661	0.074
6.40131	0.092
6.43652	0.207
6.47173	0.343
6.50695	0.421
6.54216	0.398
6.57737	0.383
6.61258	0.388
6.64779	0.435
6.68301	0.477
6.71822	0.484
6.75343	0.597
6.78864	0.608
6.82385	0.602
6.85907	0.569
6.89428	0.452
6.92949	0.491
6.9647	0.465
6.99992	0.445
7.03513	0.44
7.07034	0.36
7.10555	0.148
7.14076	0.101
7.17598	0.229
7.21119	0.426
7.2464	0.432
7.28161	0.353
7.31683	0.527
7.35204	0.554
7.38725	0.548
7.42246	0.566
7.45767	0.597
7.49289	0.616
7.5281	0.63
7.56331	0.604
7.59852	0.59
7.63373	0.426
7.66895	0.36
7.70416	0.386
7.73937	0.48
7.77458	0.447
7.8098	0.371
7.84501	0.369
7.88022	0.177
7.91543	0.094
7.95064	0.116
7.98586	0.217
8.02107	0.423
8.05628	0.573
8.09149	0.608
8.1267	0.642
8.16192	0.668
8.19713	0.688
8.23234	0.703
8.26755	0.658
8.30277	0.627
8.33798	0.658
8.37319	0.691
8.4084	0.712
8.44361	0.712
8.47883	0.703
8.51404	0.665
8.54925	0.517
8.58446	0.498
8.61968	0.564
8.65489	0.512
8.6901	0.583
8.72531	0.623
8.76052	0.637
8.79574	0.672
8.83095	0.703
8.86616	0.724
8.90137	0.733
8.93658	0.733
8.9718	0.724
9.00701	0.731
9.04222	0.731
9.07743	0.726
9.11265	0.728
9.14786	0.731
9.18307	0.738
9.21828	0.738
9.25349	0.74
9.28871	0.742
9.32392	0.742
9.35913	0.742
9.39434	0.742
9.42956	0.742
9.46477	0.742
9.49998	0.742
9.53519	0.722
9.5704	0.707
9.60562	0.702
9.64083	0.698
9.67604	0.695
9.71125	0.691
9.74646	0.675
9.78168	0.653
9.81689	0.691
9.8521	0.717
9.88731	0.729
9.92253	0.733
9.95774	0.742
9.99295	0.716
10.0282	0.688
10.0634	0.722
10.0986	0.749
10.1338	0.742
10.169	0.733
10.2042	0.722
10.2394	0.724
10.2746	0.721
10.3099	0.709
10.3451	0.716
10.3803	0.731
10.4155	0.742
10.4507	0.754
10.4859	0.77
10.5211	0.783
10.5563	0.785
10.5916	0.794
10.6268	0.796
10.662	0.792
10.6972	0.789
10.7324	0.789
10.7676	0.794
10.8028	0.797
10.838	0.794
10.8733	0.792
10.9085	0.794
10.9437	0.79
10.9789	0.778
11.0141	0.775
11.0493	0.773
11.0845	0.77
11.1197	0.768
11.155	0.771
11.1902	0.768
11.2254	0.761
11.2606	0.756
11.2958	0.743
11.331	0.736
11.3662	0.722
11.4014	0.703
11.4366	0.674
11.4719	0.634
11.5071	0.567
11.5423	0.501
11.5775	0.458
11.6127	0.414
11.6479	0.426
11.6831	0.547
11.7183	0.606
11.7536	0.602
11.7888	0.538
11.824	0.48
11.8592	0.47
11.8944	0.533
11.9296	0.559
11.9648	0.566
12	0.604
12.0353	0.628
12.0705	0.601
12.1057	0.585
12.1409	0.637
12.1761	0.665
12.2113	0.682
12.2465	0.698
12.2817	0.702
12.317	0.703
12.3522	0.705
12.3874	0.703
12.4226	0.717
12.4578	0.722
12.493	0.724
12.5282	0.728
12.5634	0.729
12.5987	0.733
12.6339	0.735
12.6691	0.738
12.7043	0.742
12.7395	0.745
12.7747	0.745
12.8099	0.745
12.8451	0.74
12.8803	0.742
12.9156	0.735
12.9508	0.724
12.986	0.721
13.0212	0.721
13.0564	0.709
13.0916	0.695
13.1268	0.686
13.162	0.682
13.1973	0.668
13.2325	0.554
13.2677	0.419
13.3029	0.393
13.3381	0.473
13.3733	0.473
13.4085	0.541
13.4437	0.628
13.479	0.675
13.5142	0.695
13.5494	0.707
13.5846	0.717
13.6198	0.728
13.655	0.728
13.6902	0.729
13.7254	0.726
13.7607	0.709
13.7959	0.703
13.8311	0.707
13.8663	0.693
13.9015	0.682
13.9367	0.691
13.9719	0.702
14.0071	0.709
14.0423	0.703
14.0776	0.698
14.1128	0.682
14.148	0.655
14.1832	0.613
14.2184	0.573
14.2536	0.52
14.2888	0.493
14.324	0.456
14.3593	0.435
14.3945	0.433
14.4297	0.48
14.4649	0.569
14.5001	0.614
14.5353	0.637
14.5705	0.637
14.6057	0.597
14.641	0.506
14.6762	0.465
14.7114	0.44
14.7466	0.454
14.7818	0.489
14.817	0.529
14.8522	0.55
14.8874	0.562
14.9227	0.562
14.9579	0.552
14.9931	0.508
15.0283	0.465
15.0635	0.456
15.0987	0.529
15.1339	0.581
15.1691	0.625
15.2044	0.642
15.2396	0.656
15.2748	0.662
15.31	0.66
15.3452	0.653
15.3804	0.651
15.4156	0.655
15.4508	0.663
15.486	0.667
15.5213	0.668
15.5565	0.668
15.5917	0.672
15.6269	0.672
15.6621	0.674
15.6973	0.674
15.7325	0.674
15.7677	0.665
15.803	0.663
15.8382	0.656
15.8734	0.655
15.9086	0.653
15.9438	0.646
15.979	0.641
16.0142	0.639
