Infrared Spectrum: 6-Amino-3-bromo-2,4-dimethylpyridine
Formula: C 7 H 9 Br N 2
CAS: 89856-44-0
State: gas
Origin: EPA-IR VAPOR PHASE LIBRARY
1/CM	ABSORBANCE
549.8	0.006817
559.445	0.004907
569.09	0.006487
578.734	0.009327
588.379	0.011907
598.024	0.012837
607.669	0.010317
617.313	0.008517
626.958	0.007047
636.603	0.004507
646.248	0.004097
655.893	0.003757
665.537	0.004317
675.182	0.003917
684.827	0.005747
694.472	0.007247
704.116	0.008867
713.761	0.009117
723.406	0.008327
733.051	0.008267
742.695	0.007007
752.34	0.005947
761.985	0.005577
771.63	0.006347
781.275	0.006277
790.919	0.007047
800.564	0.006117
810.209	0.006067
819.854	0.009147
829.498	0.011707
839.143	0.010727
848.788	0.006867
858.433	0.004227
868.078	0.003277
877.722	0.002707
887.367	0.002937
897.012	0.003267
906.657	0.003317
916.301	0.003877
925.946	0.005827
935.591	0.006237
945.236	0.005237
954.88	0.003497
964.525	0.002967
974.17	0.002517
983.815	0.002227
993.46	0.002457
1003.1	0.004067
1012.75	0.009297
1022.39	0.016227
1032.04	0.013717
1041.68	0.007827
1051.33	0.004637
1060.97	0.003907
1070.62	0.004387
1080.26	0.002587
1089.91	0.003687
1099.55	0.003417
1109.2	0.002717
1118.84	0.002837
1128.49	0.001717
1138.13	0.003327
1147.78	0.001557
1157.42	0.001967
1167.07	0.0013246
1176.71	0.002327
1186.36	0.003487
1196	0.013127
1205.64	0.016677
1215.29	0.005987
1224.93	0.003657
1234.58	0.004227
1244.22	0.005877
1253.87	0.004427
1263.51	0.003507
1273.16	0.002197
1282.8	0.002747
1292.45	0.002577
1302.09	0.002147
1311.74	0.002237
1321.38	0.002937
1331.03	0.004737
1340.67	0.010297
1350.32	0.012037
1359.96	0.007847
1369.61	0.009737
1379.25	0.014717
1388.9	0.017747
1398.54	0.039447
1408.18	0.057077
1417.83	0.036007
1427.47	0.019177
1437.12	0.019337
1446.76	0.026477
1456.41	0.031717
1466.05	0.022787
1475.7	0.012207
1485.34	0.008437
1494.99	0.007087
1504.63	0.007067
1514.28	0.007967
1523.92	0.011117
1533.57	0.017757
1543.21	0.024867
1552.86	0.027847
1562.5	0.027087
1572.15	0.025787
1581.79	0.031657
1591.44	0.049307
1601.08	0.075867
1610.73	0.079477
1620.37	0.048737
1630.01	0.023917
1639.66	0.012717
1649.3	0.008117
1658.95	0.005887
1668.59	0.004617
1678.24	0.003407
1687.88	0.002637
1697.53	0.002397
1707.17	0.001907
1716.82	0.001967
1726.46	0.001877
1736.11	0.001647
1745.75	0.001647
1755.4	0.001547
1765.04	0.001437
1774.69	0.0013964
1784.33	0.001325
1793.98	0.001427
1803.62	0.001198
1813.27	0.0012811
1822.91	0.0010688
1832.55	0.0012304
1842.2	0.0009717
1851.84	0.0009529
1861.49	0.0008224
1871.13	0.0011557
1880.78	0.0012026
1890.42	0.0009989
1900.07	0.0011007
1909.71	0.0012423
1919.36	0.0012964
1929	0.0011457
1938.65	0.0013496
1948.29	0.0013323
1957.94	0.0011712
1967.58	0.0011877
1977.23	0.001447
1986.87	0.0011518
1996.52	0.0010168
2006.16	0.0011063
2015.81	0.0010948
2025.45	0.0011804
2035.1	0.0010797
2044.74	0.0010052
2054.38	0.0012399
2064.03	0.0007715
2073.67	0.0009403
2083.32	0.001146
2092.96	0.0010926
2102.61	0.0008486
2112.25	0.0009314
2121.9	0.0013014
2131.54	0.0013038
2141.19	0.0010729
2150.83	0.0010386
2160.48	0.0010643
2170.12	0.0010237
2179.77	0.0010063
2189.41	0.0009743
2199.06	0.0010288
2208.7	0.0011322
2218.35	0.0011254
2227.99	0.0011566
2237.64	0.0009925
2247.28	0.0010648
2256.92	0.0010001
2266.57	0.0009026
2276.21	0.0007505
2285.86	0.0009501
2295.5	0.0009833
2305.15	0.0007158
2314.79	0.0012428
2324.44	0.0010941
2334.08	0.0012173
2343.73	0.0010431
2353.37	0.0010629
2363.02	0.0010253
2372.66	0.000898
2382.31	0.0007575
2391.95	0.0010566
2401.6	0.0006963
2411.24	0.0010176
2420.89	0.0007593
2430.53	0.0011508
2440.18	0.0011062
2449.82	0.0010238
2459.47	0.0010878
2469.11	0.0009527
2478.75	0.0010338
2488.4	0.0007107
2498.04	0.0008012
2507.69	0.0009315
2517.33	0.0009768
2526.98	0.000806
2536.62	0.0007715
2546.27	0.0007734
2555.91	0.0007905
2565.56	0.0009644
2575.2	0.0009561
2584.85	0.001022
2594.49	0.00048521
2604.14	0.0011103
2613.78	0.0008235
2623.43	0.0008205
2633.07	0.0009688
2642.72	0.0010411
2652.36	0.0013259
2662.01	0.0010441
2671.65	0.0009321
2681.29	0.0007171
2690.94	0.0010685
2700.58	0.0011187
2710.23	0.0011603
2719.87	0.0009705
2729.52	0.0008642
2739.16	0.001427
2748.81	0.0010562
2758.45	0.0009732
2768.1	0.0013462
2777.74	0.0010398
2787.39	0.0011164
2797.03	0.0011245
2806.68	0.0010954
2816.32	0.0010968
2825.97	0.001557
2835.61	0.001687
2845.26	0.002077
2854.9	0.002737
2864.55	0.002797
2874.19	0.002567
2883.84	0.002327
2893.48	0.002127
2903.12	0.002557
2912.77	0.002987
2922.41	0.005367
2932.06	0.008837
2941.7	0.009277
2951.35	0.006367
2960.99	0.005617
2970.64	0.006207
2980.28	0.006107
2989.93	0.005727
2999.57	0.005277
3009.22	0.004707
3018.86	0.004517
3028.51	0.004827
3038.15	0.005897
3047.8	0.005567
3057.44	0.003767
3067.09	0.002177
3076.73	0.002217
3086.38	0.001477
3096.02	0.001727
3105.67	0.0014114
3115.31	0.001487
3124.95	0.0011258
3134.6	0.001707
3144.24	0.0012748
3153.89	0.001677
3163.53	0.001447
3173.18	0.001427
3182.82	0.0010482
3192.47	0.0009862
3202.11	0.0008507
3211.76	0.0009126
3221.4	0.000422628
3231.05	0.0008328
3240.69	0.0009972
3250.34	0.0008173
3259.98	0.0007474
3269.63	0.000288
3279.27	0.0009495
3288.92	0.0009507
3298.56	0.0008467
3308.21	0.0007923
3317.85	0.0007758
3327.49	0.0007293
3337.14	0.000908
3346.78	0.000964
3356.43	0.0007005
3366.07	0.0007541
3375.72	0.0005741
3385.36	0.001587
3395.01	0.002787
3404.65	0.006087
3414.3	0.011317
3423.94	0.008967
3433.59	0.006697
3443.23	0.004007
3452.88	0.001507
3462.52	0.001092
3472.17	0.001477
3481.81	0.001467
3491.46	0.002357
3501.1	0.003747
3510.75	0.005987
3520.39	0.005687
3530.04	0.003627
3539.68	0.003397
3549.32	0.002657
3558.97	0.0011903
3568.61	0.0008388
3578.26	0.0006425
3587.9	0.0008518
3597.55	0.00041271
3607.19	0.00050102
3616.84	0.00029
3626.48	0.0007313
3636.13	0.00023
3645.77	0.0012198
3655.42	0.0005701
3665.06	0.000294
3674.71	0.0006273
3684.35	0.000296
3694	0.000184
3703.64	0.0005231
3713.29	0.000599
3722.93	0.0008684
3732.58	0.000686
3742.22	0.000248
3751.86	0.0007351
3761.51	0.000379
3771.15	0.0011299
3780.8	0.0009431
3790.44	0.0009042
3800.09	0.0008309
3809.73	0.0009133
3819.38	0.0007849
3829.02	0.0012132
3838.67	0.000229
3848.31	0.0009869
3857.96	0.0006446
3867.6	0.0009134
3877.25	0.0007667
3886.89	0.0005535
3896.54	0.00049281
3906.18	0.00043393
3915.83	0.0005585
3925.47	0.0005741
3935.12	0.0006642
3944.76	0.0012578
3954.41	0.0008016
3964.05	0.00045364
3973.69	0.0005803
3983.34	0.0008299
3992.98	0.0008267
