Infrared Spectrum: UREA, 1-METHYL-1-NITROSO-3-[(1,2,3,4-TETRAHYDRO-2,4-DIOXO-5-PYRIMIDINYL)METHYL-
Formula: C7 H9 N5 O4
CAS: 89854-42-2
State: SOLID (0.7 mg / 500 mg KBr DISC)
Class: COBLENTZ III
Instrument: PERKIN-ELMER 221 (GRATING)
Instrument parameters: FILTER AT 980 CM^-^1. GRATING 4000-1428 CM^-^1, NaCl PRISM 1428-650 CM^-^1
Sampling: TRANSMISSION
Resolution: 2
Origin: SOUTHERN RESEARCH INSTITUTE
1/CM	TRANSMITTANCE
613.725	0.741
622.431	0.755
631.138	0.768
639.844	0.771
648.551	0.7798
657.257	0.7918
665.964	0.8019
674.67	0.821
683.377	0.822
692.083	0.8174
700.79	0.8055
709.496	0.7885
718.203	0.7636
726.909	0.7067
735.616	0.6554
744.322	0.7207
753.029	0.5381
761.735	0.4863
770.442	0.5205
779.148	0.6967
787.855	0.713
796.561	0.6859
805.267	0.688
813.974	0.6841
822.68	0.6264
831.387	0.5998
840.093	0.5546
848.8	0.6063
857.506	0.6612
866.213	0.7081
874.919	0.7579
883.626	0.7919
892.332	0.807
901.039	0.808
909.745	0.8001
918.452	0.7279
927.158	0.621
935.865	0.5568
944.571	0.632
953.278	0.5399
961.984	0.7368
970.691	0.7886
979.397	0.738
988.103	0.6641
996.81	0.5237
1005.52	0.4705
1014.22	0.4624
1022.93	0.6003
1031.64	0.6533
1040.34	0.6459
1049.05	0.6973
1057.76	0.7888
1066.46	0.8247
1075.17	0.826
1083.87	0.829
1092.58	0.829
1101.29	0.8228
1109.99	0.8179
1118.7	0.7905
1127.41	0.7313
1136.11	0.6786
1144.82	0.5526
1153.53	0.4113
1162.23	0.3103
1170.94	0.4435
1179.65	0.6097
1188.35	0.638
1197.06	0.5631
1205.77	0.5238
1214.47	0.583
1223.18	0.5367
1231.88	0.5246
1240.59	0.5403
1249.3	0.7167
1258	0.697
1266.71	0.7572
1275.42	0.8019
1284.12	0.816
1292.83	0.8018
1301.54	0.7502
1310.24	0.6998
1318.95	0.7467
1327.66	0.758
1336.36	0.7426
1345.07	0.6379
1353.78	0.7441
1362.48	0.7645
1371.19	0.708
1379.89	0.74
1388.6	0.7079
1397.31	0.6514
1406.01	0.675
1414.72	0.4623
1423.43	0.4235
1432.13	0.3948
1440.84	0.3521
1449.55	0.3865
1458.25	0.3543
1466.96	0.2008
1475.67	0.1691
1484.37	0.2664
1493.08	0.4222
1501.79	0.4983
1510.49	0.3619
1519.2	0.227
1527.9	0.149
1536.61	0.291
1545.32	0.5873
1554.02	0.6942
1562.73	0.7286
1571.44	0.735
1580.14	0.7285
1588.85	0.713
1597.56	0.6962
1606.26	0.6632
1614.97	0.6186
1623.68	0.5726
1632.38	0.5256
1641.09	0.4477
1649.8	0.339
1658.5	0.2003
1667.21	0.1023
1675.92	0.0545
1684.62	0.1365
1693.33	0.172
1702.03	0.1136
1710.74	0.0535
1719.45	0.1337
1728.15	0.1595
1736.86	0.0983
1745.57	0.0861
1754.27	0.1448
1762.98	0.2979
1771.69	0.4993
1780.39	0.6159
1789.1	0.6699
1797.81	0.6996
1806.51	0.752
1815.22	0.7956
1823.93	0.8325
1832.63	0.8527
1841.34	0.8638
1850.04	0.8798
1858.75	0.8846
1867.46	0.887
1876.16	0.886
1884.87	0.885
1893.58	0.8867
1902.28	0.892
1910.99	0.895
1919.7	0.8986
1928.4	0.9006
1937.11	0.904
1945.82	0.906
1954.52	0.906
1963.23	0.9065
1971.94	0.9075
1980.64	0.91
1989.35	0.911
1998.05	0.911
2006.76	0.912
2015.47	0.912
2024.17	0.912
2032.88	0.912
2041.59	0.913
2050.29	0.916
2059	0.916
2067.71	0.916
2076.41	0.916
2085.12	0.917
2093.83	0.917
2102.53	0.917
2111.24	0.917
2119.95	0.91
2128.65	0.911
2137.36	0.912
2146.06	0.9149
2154.77	0.919
2163.48	0.9196
2172.18	0.917
2180.89	0.914
2189.6	0.912
2198.3	0.9106
2207.01	0.91
2215.72	0.9091
2224.42	0.908
2233.13	0.91
2241.84	0.91
2250.54	0.912
2259.25	0.91
2267.96	0.9066
2276.66	0.9064
2285.37	0.91
2294.07	0.91
2302.78	0.9076
2311.49	0.91
2320.19	0.908
2328.9	0.9066
2337.61	0.905
2346.31	0.9031
2355.02	0.9016
2363.73	0.898
2372.43	0.895
2381.14	0.893
2389.85	0.893
2398.55	0.892
2407.26	0.889
2415.97	0.886
2424.67	0.886
2433.38	0.886
2442.08	0.886
2450.79	0.889
2459.5	0.892
2468.2	0.892
2476.91	0.893
2485.62	0.893
2494.32	0.893
2503.03	0.893
2511.74	0.893
2520.44	0.893
2529.15	0.892
2537.86	0.889
2546.56	0.887
2555.27	0.883
2563.98	0.88
2572.68	0.88
2581.39	0.879
2590.1	0.876
2598.8	0.876
2607.51	0.875
2616.21	0.8706
2624.92	0.867
2633.63	0.865
2642.33	0.864
2651.04	0.864
2659.75	0.858
2668.45	0.856
2677.16	0.8456
2685.87	0.841
2694.57	0.838
2703.28	0.834
2711.99	0.831
2720.69	0.8266
2729.4	0.821
2738.11	0.819
2746.81	0.819
2755.52	0.8181
2764.22	0.8087
2772.93	0.7841
2781.64	0.7687
2790.34	0.7361
2799.05	0.7088
2807.76	0.6738
2816.46	0.6386
2825.17	0.6423
2833.88	0.658
2842.58	0.653
2851.29	0.6556
2860	0.637
2868.7	0.637
2877.41	0.6346
2886.12	0.6281
2894.82	0.6206
2903.53	0.6076
2912.23	0.5867
2920.94	0.5657
2929.65	0.552
2938.35	0.5451
2947.06	0.5296
2955.77	0.525
2964.47	0.525
2973.18	0.522
2981.89	0.5106
2990.59	0.4904
2999.3	0.462
3008.01	0.4441
3016.71	0.4121
3025.42	0.402
3034.13	0.4044
3042.83	0.414
3051.54	0.4224
3060.24	0.427
3068.95	0.427
3077.66	0.4284
3086.36	0.4464
3095.07	0.4533
3103.78	0.458
3112.48	0.4556
3121.19	0.4526
3129.9	0.447
3138.6	0.45
3147.31	0.45
3156.02	0.4466
3164.72	0.4436
3173.43	0.443
3182.14	0.4419
3190.84	0.4406
3199.55	0.4376
3208.25	0.4301
3216.96	0.4226
3225.67	0.4224
3234.37	0.4329
3243.08	0.4459
3251.79	0.4822
3260.49	0.5053
3269.2	0.5423
3277.91	0.5663
3286.61	0.5914
3295.32	0.6014
3304.03	0.61
3312.73	0.613
3321.44	0.6086
3330.15	0.6006
3338.85	0.5896
3347.56	0.5646
3356.26	0.5357
3364.97	0.5176
3373.68	0.516
3382.38	0.5239
3391.09	0.5354
3399.8	0.5469
3408.5	0.5554
3417.21	0.559
3425.92	0.5846
3434.62	0.6326
3443.33	0.6782
3452.04	0.6983
3460.74	0.7197
3469.45	0.7534
3478.16	0.7614
3486.86	0.7689
3495.57	0.7774
3504.27	0.7839
3512.98	0.7899
3521.69	0.7954
3530.39	0.8004
3539.1	0.8059
3547.81	0.8119
3556.51	0.8214
3565.22	0.8299
3573.93	0.8394
3582.63	0.8464
3591.34	0.8539
3600.05	0.861
3608.75	0.8674
3617.46	0.8754
3626.17	0.8824
3634.87	0.8884
3643.58	0.8934
3652.29	0.9
3660.99	0.904
3669.7	0.9064
3678.4	0.91
3687.11	0.911
3695.82	0.9114
3704.52	0.912
3713.23	0.913
3721.94	0.9149
3730.64	0.917
3739.35	0.917
3748.06	0.917
3756.76	0.9174
3765.47	0.918
3774.18	0.918
3782.88	0.918
3791.59	0.919
3800.3	0.9194
3809	0.92
3817.71	0.92
3826.41	0.92
3835.12	0.92
3843.83	0.922
3852.53	0.922
3861.24	0.922
3869.95	0.922
3878.65	0.9224
3887.36	0.9226
3896.07	0.922
3904.77	0.92
3913.48	0.9196
3922.19	0.919
3930.89	0.918
3939.6	0.917
3948.31	0.917
3957.01	0.9174
3965.72	0.918
3974.42	0.918
3983.13	0.918
3991.84	0.918
4000.54	0.917
4009.25	0.917
4017.96	0.918
4026.66	0.917
4035.37	0.918
