Infrared Spectrum: N,N'-Dimethyl-5-pyrrolidinone-3-carboxamide
Formula: C 7 H 12 N 2 O 2
CAS: 89851-99-0
State: gas
Origin: EPA-IR VAPOR PHASE LIBRARY
1/CM	ABSORBANCE
549.8	0.0007322
559.445	0.0007023
569.09	0.000646
578.734	0.0005585
588.379	0.0004598
598.024	0.0007818
607.669	0.0008198
617.313	0.0004873
626.958	0.00041551
636.603	0.00035978
646.248	0.0006916
655.893	0.000632
665.537	0.0004963
675.182	0.0007884
684.827	0.0008154
694.472	0.0008941
704.116	0.000932
713.761	0.0008651
723.406	0.0006185
733.051	0.0007641
742.695	0.0006894
752.34	0.0005472
761.985	0.00063
771.63	0.000596
781.275	0.0007127
790.919	0.000564
800.564	0.0006834
810.209	0.0009
819.854	0.0008334
829.498	0.0006479
839.143	0.0007603
848.788	0.0007704
858.433	0.000845
868.078	0.0009031
877.722	0.000775
887.367	0.0006967
897.012	0.0008177
906.657	0.0008333
916.301	0.0007423
925.946	0.0008059
935.591	0.000684
945.236	0.0006846
954.88	0.0010132
964.525	0.0007896
974.17	0.000819
983.815	0.001432
993.46	0.001582
1003.1	0.0012692
1012.75	0.0008678
1022.39	0.0008125
1032.04	0.000811
1041.68	0.0011169
1051.33	0.0009834
1060.97	0.0007589
1070.62	0.0008877
1080.26	0.001322
1089.91	0.0011406
1099.55	0.0012277
1109.2	0.001392
1118.84	0.001316
1128.49	0.0011807
1138.13	0.001422
1147.78	0.0010949
1157.42	0.001502
1167.07	0.001662
1176.71	0.002592
1186.36	0.004102
1196	0.005242
1205.64	0.005622
1215.29	0.004762
1224.93	0.004882
1234.58	0.004252
1244.22	0.005042
1253.87	0.006182
1263.51	0.007232
1273.16	0.007162
1282.8	0.006642
1292.45	0.005532
1302.09	0.003842
1311.74	0.002582
1321.38	0.001942
1331.03	0.001602
1340.67	0.001462
1350.32	0.001502
1359.96	0.001652
1369.61	0.001992
1379.25	0.002752
1388.9	0.004412
1398.54	0.006072
1408.18	0.006242
1417.83	0.006032
1427.47	0.006262
1437.12	0.005072
1446.76	0.003902
1456.41	0.003772
1466.05	0.004772
1475.7	0.006762
1485.34	0.009972
1494.99	0.011822
1504.63	0.010112
1514.28	0.007332
1523.92	0.005432
1533.57	0.004082
1543.21	0.003232
1552.86	0.002602
1562.5	0.002072
1572.15	0.001642
1581.79	0.001432
1591.44	0.0012194
1601.08	0.0010033
1610.73	0.0009396
1620.37	0.0009654
1630.01	0.0009738
1639.66	0.0010764
1649.3	0.0012794
1658.95	0.001572
1668.59	0.002362
1678.24	0.003972
1687.88	0.006712
1697.53	0.011242
1707.17	0.017122
1716.82	0.023862
1726.46	0.036322
1736.11	0.041542
1745.75	0.022902
1755.4	0.007432
1765.04	0.003222
1774.69	0.001912
1784.33	0.0012435
1793.98	0.000914
1803.62	0.0007398
1813.27	0.0005753
1822.91	0.0005713
1832.55	0.0005439
1842.2	0.0005517
1851.84	0.0004779
1861.49	0.000436
1871.13	0.00041052
1880.78	0.00037815
1890.42	0.0004301
1900.07	0.0004387
1909.71	0.00041492
1919.36	0.00041334
1929	0.00039168
1938.65	0.00040993
1948.29	0.00038235
1957.94	0.0003099
1967.58	0.00037372
1977.23	0.00036803
1986.87	0.00037904
1996.52	0.00037049
2006.16	0.0003757
2015.81	0.00033259
2025.45	0.00040144
2035.1	0.0004346
2044.74	0.00038263
2054.38	0.00038527
2064.03	0.00036512
2073.67	0.0003355
2083.32	0.00040826
2092.96	0.00035467
2102.61	0.00039737
2112.25	0.00038306
2121.9	0.00033934
2131.54	0.00036345
2141.19	0.00031706
2150.83	0.00036988
2160.48	0.00040783
2170.12	0.00037102
2179.77	0.0004227
2189.41	0.00039569
2199.06	0.00039567
2208.7	0.00041119
2218.35	0.00035833
2227.99	0.00034984
2237.64	0.00033925
2247.28	0.00038891
2256.92	0.00034711
2266.57	0.000325662
2276.21	0.00033749
2285.86	0.00041299
2295.5	0.00035271
2305.15	0.0002753
2314.79	0.0003074
2324.44	0.0002583
2334.08	0.00036687
2343.73	0.0002687
2353.37	0.00038058
2363.02	0.00035299
2372.66	0.000305
2382.31	0.00034044
2391.95	0.00040257
2401.6	0.0004804
2411.24	0.00039425
2420.89	0.0003106
2430.53	0.00035662
2440.18	0.00038431
2449.82	0.00039113
2459.47	0.00039042
2469.11	0.0002997
2478.75	0.00039635
2488.4	0.0004289
2498.04	0.00036951
2507.69	0.00038303
2517.33	0.0002906
2526.98	0.000326961
2536.62	0.0004745
2546.27	0.0003945
2555.91	0.0003619
2565.56	0.0003986
2575.2	0.00036472
2584.85	0.00031962
2594.49	0.0003635
2604.14	0.0003815
2613.78	0.0004423
2623.43	0.0003337
2633.07	0.00036841
2642.72	0.00032456
2652.36	0.00033521
2662.01	0.00034093
2671.65	0.0002978
2681.29	0.00037297
2690.94	0.000424
2700.58	0.0004828
2710.23	0.0005354
2719.87	0.0003621
2729.52	0.00038322
2739.16	0.00035091
2748.81	0.0005456
2758.45	0.0005215
2768.1	0.0005431
2777.74	0.000615
2787.39	0.0007559
2797.03	0.0008316
2806.68	0.0009862
2816.32	0.0011612
2825.97	0.001442
2835.61	0.001462
2845.26	0.001872
2854.9	0.002452
2864.55	0.002952
2874.19	0.003522
2883.84	0.003722
2893.48	0.004142
2903.12	0.004282
2912.77	0.004602
2922.41	0.005422
2932.06	0.006432
2941.7	0.006522
2951.35	0.005652
2960.99	0.004272
2970.64	0.003062
2980.28	0.002402
2989.93	0.001952
2999.57	0.001662
3009.22	0.001332
3018.86	0.0009538
3028.51	0.0009303
3038.15	0.0007512
3047.8	0.0008679
3057.44	0.0009141
3067.09	0.0008014
3076.73	0.0006193
3086.38	0.0005955
3096.02	0.0005786
3105.67	0.0003893
3115.31	0.0005011
3124.95	0.0004647
3134.6	0.00040965
3144.24	0.0002368
3153.89	0.00033314
3163.53	0.00031398
3173.18	0.0002236
3182.82	0.0004399
3192.47	0.0002598
3202.11	0.0002642
3211.76	0.00039256
3221.4	0.00041751
3231.05	0.0004424
3240.69	0.0002262
3250.34	0.0002572
3259.98	0.00033781
3269.63	0.0004254
3279.27	0.0002758
3288.92	0.0002378
3298.56	0.000211
3308.21	0.0002957
3317.85	0.0002861
3327.49	0.0002825
3337.14	0.000106
3346.78	0.0002932
3356.43	0.000311
3366.07	0.00036658
3375.72	0.0003742
3385.36	0.0004628
3395.01	0.0004967
3404.65	0.0004628
3414.3	0.0004939
3423.94	0.0006568
3433.59	0.000607
3443.23	0.0007871
3452.88	0.0010946
3462.52	0.0013034
3472.17	0.0013015
3481.81	0.001402
3491.46	0.0012186
3501.1	0.0007646
3510.75	0.0006505
3520.39	0.0004385
3530.04	0.00031313
3539.68	0.0002589
3549.32	0.000215
3558.97	0.00016
3568.61	0.000187
3578.26	0.00033882
3587.9	0.0002708
3597.55	0.000205
3607.19	0.000159
3616.84	5.8e-05
3626.48	0.000446
3636.13	0.000134
3645.77	0.000216
3655.42	0.00035908
3665.06	0.0002612
3674.71	0.0002528
3684.35	0.00040538
3694	0.0002835
3703.64	0.000142
3713.29	0.0004339
3722.93	0.0002376
3732.58	0.0004034
3742.22	0.000194
3751.86	0.0002878
3761.51	0.0002622
3771.15	0.0002632
3780.8	0.000114
3790.44	0.0002233
3800.09	0.000307
3809.73	0.000216
3819.38	0.000132
3829.02	0.000179
3838.67	0.00035433
3848.31	0.00035493
3857.96	0.000178
3867.6	0.000325325
3877.25	0.0002594
3886.89	0.00034949
3896.54	0.0002562
3906.18	0.0002221
3915.83	0.0002975
3925.47	0.0002833
3935.12	0.0002606
3944.76	0.0002912
3954.41	0.0002779
3964.05	0.0002236
3973.69	0.000175
3983.34	0.000161
3992.98	0.000187
