Infrared Spectrum: UREA, 1-(2-HYDROXYETHYL)-3-(1,2,3,4-TETRAHYDRO-2,4-DIOXO-5-PYRIMIDINYL)-
Formula: C7 H10 N4 O4
CAS: 89897-57-4
State: SOLID (0.7 mg / 500 mg KBr DISC)
Class: COBLENTZ III
Instrument: PERKIN-ELMER 221 (GRATING)
Instrument parameters: FILTER CHANGES AT 2490, 980 CM^-^1, GRATING FOR 4000-1428 CM^-^1, NaCl PRISM FOR 1428-650 CM^-^1
Sampling: TRANSMISSION
Resolution: 4
Origin: SOUTHERN RESEARCH INST.
1/CM	TRANSMITTANCE
606.195	0.664
615.734	0.658
625.274	0.632
634.813	0.55
644.353	0.463
653.892	0.367
663.432	0.33
672.971	0.423
682.511	0.603
692.05	0.707
701.59	0.793
711.129	0.81
720.669	0.801
730.208	0.772
739.748	0.636
749.287	0.636
758.827	0.424
768.366	0.672
777.906	0.735
787.445	0.584
796.985	0.666
806.524	0.774
816.064	0.771
825.603	0.751
835.143	0.683
844.682	0.798
854.222	0.785
863.761	0.716
873.3	0.677
882.84	0.692
892.379	0.636
901.919	0.607
911.458	0.565
920.998	0.483
930.537	0.625
940.077	0.702
949.616	0.738
959.156	0.749
968.695	0.753
978.235	0.744
987.774	0.569
997.314	0.714
1006.85	0.661
1016.39	0.725
1025.93	0.707
1035.47	0.681
1045.01	0.62
1054.55	0.406
1064.09	0.358
1073.63	0.573
1083.17	0.62
1092.71	0.601
1102.25	0.546
1111.79	0.46
1121.33	0.453
1130.87	0.508
1140.41	0.554
1149.95	0.516
1159.48	0.436
1169.02	0.371
1178.56	0.372
1188.1	0.513
1197.64	0.552
1207.18	0.518
1216.72	0.449
1226.26	0.311
1235.8	0.293
1245.34	0.374
1254.88	0.515
1264.42	0.564
1273.96	0.426
1283.5	0.553
1293.04	0.71
1302.58	0.719
1312.12	0.688
1321.66	0.655
1331.2	0.585
1340.74	0.464
1350.27	0.344
1359.81	0.576
1369.35	0.602
1378.89	0.507
1388.43	0.579
1397.97	0.55
1407.51	0.429
1417.05	0.332
1426.59	0.243
1436.13	0.273
1445.67	0.496
1455.21	0.595
1464.75	0.473
1474.29	0.404
1483.83	0.34
1493.37	0.465
1502.91	0.482
1512.45	0.441
1521.99	0.42
1531.52	0.364
1541.06	0.325
1550.6	0.249
1560.14	0.197
1569.68	0.127
1579.22	0.101
1588.76	0.129
1598.3	0.176
1607.84	0.191
1617.38	0.135
1626.92	0.115
1636.46	0.063
1646	0.059
1655.54	0.107
1665.08	0.129
1674.62	0.204
1684.16	0.223
1693.7	0.262
1703.24	0.154
1712.77	0.119
1722.31	0.16
1731.85	0.254
1741.39	0.345
1750.93	0.438
1760.47	0.503
1770.01	0.572
1779.55	0.574
1789.09	0.617
1798.63	0.66
1808.17	0.716
1817.71	0.779
1827.25	0.817
1836.79	0.839
1846.33	0.867
1855.87	0.884
1865.41	0.9
1874.95	0.921
1884.49	0.932
1894.02	0.932
1903.56	0.938
1913.1	0.945
1922.64	0.955
1932.18	0.96
1941.72	0.961
1951.26	0.956
1960.8	0.951
1970.34	0.947
1979.88	0.943
1989.42	0.937
1998.96	0.935
2008.5	0.937
2018.04	0.946
2027.58	0.945
2037.12	0.94
2046.66	0.936
2056.2	0.935
2065.74	0.932
2075.28	0.928
2084.81	0.923
2094.35	0.917
2103.89	0.91
2113.43	0.904
2122.97	0.9
2132.51	0.898
2142.05	0.896
2151.59	0.893
2161.13	0.891
2170.67	0.888
2180.21	0.885
2189.75	0.881
2199.29	0.872
2208.83	0.87
2218.37	0.868
2227.91	0.866
2237.45	0.863
2246.99	0.86
2256.53	0.853
2266.06	0.85
2275.6	0.847
2285.14	0.845
2294.68	0.844
2304.22	0.836
2313.76	0.821
2323.3	0.808
2332.84	0.803
2342.38	0.799
2351.92	0.797
2361.46	0.795
2371	0.791
2380.54	0.788
2390.08	0.784
2399.62	0.775
2409.16	0.768
2418.7	0.763
2428.24	0.762
2437.78	0.761
2447.31	0.76
2456.85	0.76
2466.39	0.76
2475.93	0.759
2485.47	0.756
2495.01	0.748
2504.55	0.742
2514.09	0.734
2523.63	0.724
2533.17	0.719
2542.71	0.713
2552.25	0.707
2561.79	0.7
2571.33	0.692
2580.87	0.687
2590.41	0.679
2599.95	0.673
2609.49	0.665
2619.03	0.657
2628.56	0.648
2638.1	0.638
2647.64	0.626
2657.18	0.623
2666.72	0.625
2676.26	0.623
2685.8	0.615
2695.34	0.605
2704.88	0.6
2714.42	0.598
2723.96	0.595
2733.5	0.584
2743.04	0.561
2752.58	0.546
2762.12	0.527
2771.66	0.517
2781.2	0.498
2790.74	0.475
2800.28	0.445
2809.82	0.426
2819.35	0.39
2828.89	0.408
2838.43	0.481
2847.97	0.519
2857.51	0.519
2867.05	0.511
2876.59	0.486
2886.13	0.457
2895.67	0.423
2905.21	0.399
2914.75	0.378
2924.29	0.382
2933.83	0.385
2943.37	0.371
2952.91	0.365
2962.45	0.353
2971.99	0.352
2981.53	0.353
2991.07	0.353
3000.6	0.355
3010.14	0.357
3019.68	0.378
3029.22	0.406
3038.76	0.43
3048.3	0.443
3057.84	0.44
3067.38	0.428
3076.92	0.404
3086.46	0.378
3096	0.363
3105.54	0.35
3115.08	0.333
3124.62	0.318
3134.16	0.32
3143.7	0.33
3153.24	0.318
3162.78	0.296
3172.32	0.303
3181.85	0.319
3191.39	0.303
3200.93	0.265
3210.47	0.235
3220.01	0.232
3229.55	0.228
3239.09	0.248
3248.63	0.288
3258.17	0.333
3267.71	0.354
3277.25	0.362
3286.79	0.353
3296.33	0.327
3305.87	0.245
3315.41	0.194
3324.95	0.259
3334.49	0.284
3344.03	0.191
3353.57	0.111
3363.1	0.128
3372.64	0.179
3382.18	0.235
3391.72	0.288
3401.26	0.344
3410.8	0.385
3420.34	0.42
3429.88	0.456
3439.42	0.479
3448.96	0.502
3458.5	0.533
3468.04	0.568
3477.58	0.585
3487.12	0.611
3496.66	0.624
3506.2	0.654
3515.74	0.669
3525.28	0.682
3534.82	0.695
3544.36	0.705
3553.89	0.714
3563.43	0.719
3572.97	0.721
3582.51	0.727
3592.05	0.733
3601.59	0.738
3611.13	0.741
3620.67	0.741
3630.21	0.742
3639.75	0.742
3649.29	0.741
3658.83	0.739
3668.37	0.737
3677.91	0.736
3687.45	0.734
3696.99	0.734
3706.53	0.734
3716.07	0.729
3725.61	0.726
3735.14	0.722
3744.68	0.719
3754.22	0.718
3763.76	0.716
3773.3	0.715
3782.84	0.713
3792.38	0.711
3801.92	0.708
3811.46	0.704
3821	0.702
3830.54	0.698
3840.08	0.694
3849.62	0.691
3859.16	0.689
3868.7	0.684
3878.24	0.68
3887.78	0.677
3897.32	0.675
3906.86	0.673
3916.39	0.67
3925.93	0.668
3935.47	0.667
3945.01	0.666
3954.55	0.666
3964.09	0.666
3973.63	0.666
3983.17	0.664
3992.71	0.663
4002.25	0.662
