Infrared Spectrum: CYCLOBUTANE CARBOXAMIDE, 3,3-DIMETHYL
Formula: C7 H13 N O
CAS: 89894-97-3
State: SOLID (KBr PELLET)
Melting point: 170-171 C
Class: COBLENTZ
Instrument: Not specified, most likely a prism, grating, or hybrid spectrometer.
Sampling: TRANSMISSION
Resolution: 4
Origin: TENNESSEE EASTMAN COMPANY, RESEARCH LABORATORIES
MICROMETERS	TRANSMITTANCE
2.041	0.994
2.08189	0.996
2.12279	1
2.16368	1
2.20458	1
2.24547	1.001
2.28636	1
2.32726	1
2.36815	0.998
2.40905	0.996
2.44994	0.996
2.49083	1
2.53173	1
2.57262	1
2.61352	0.998
2.65441	0.998
2.69531	0.993
2.7362	0.962
2.77709	0.93
2.81799	0.901
2.85888	0.849
2.89978	0.742
2.94067	0.302
2.98156	0.088
3.02246	0.235
3.06335	0.336
3.10425	0.305
3.14514	0.126
3.18603	0.291
3.22693	0.561
3.26782	0.721
3.30872	0.805
3.34961	0.539
3.3905	0.223
3.4314	0.638
3.47229	0.511
3.51319	0.843
3.55408	0.837
3.59498	0.877
3.63587	0.928
3.67676	0.938
3.71766	0.96
3.75855	0.969
3.79945	0.967
3.84034	0.97
3.88123	0.972
3.92213	0.972
3.96302	0.972
4.00392	0.97
4.04481	0.974
4.0857	0.974
4.1266	0.972
4.16749	0.967
4.20839	0.965
4.24928	0.953
4.29017	0.94
4.33107	0.938
4.37196	0.96
4.41286	0.967
4.45375	0.965
4.49465	0.972
4.53554	0.976
4.57643	0.974
4.61733	0.974
4.65822	0.972
4.69912	0.976
4.74001	0.977
4.7809	0.981
4.8218	0.977
4.86269	0.981
4.90359	0.977
4.94448	0.981
4.98537	0.979
5.02627	0.986
5.06716	0.981
5.10806	0.982
5.14895	0.981
5.18984	0.981
5.23074	0.976
5.27163	0.972
5.31253	0.97
5.35342	0.967
5.39432	0.97
5.43521	0.969
5.4761	0.967
5.517	0.967
5.55789	0.953
5.59879	0.943
5.63968	0.918
5.68057	0.907
5.72147	0.875
5.76236	0.831
5.80326	0.82
5.84415	0.781
5.88504	0.672
5.92594	0.515
5.96683	0.209
6.00773	0.03
6.04862	0.029
6.08951	0.064
6.13041	0.022
6.1713	0.083
6.2122	0.36
6.25309	0.581
6.29399	0.697
6.33488	0.747
6.37577	0.781
6.41667	0.784
6.45756	0.802
6.49846	0.796
6.53935	0.8
6.58024	0.795
6.62114	0.769
6.66203	0.771
6.70293	0.749
6.74382	0.713
6.78471	0.597
6.82561	0.406
6.8665	0.488
6.9074	0.44
6.94829	0.261
6.98918	0.168
7.03008	0.163
7.07097	0.255
7.11187	0.399
7.15276	0.503
7.19366	0.569
7.23455	0.581
7.27544	0.588
7.31634	0.416
7.35723	0.634
7.39813	0.675
7.43902	0.689
7.47991	0.692
7.52081	0.697
7.5617	0.697
7.6026	0.672
7.64349	0.592
7.68438	0.354
7.72528	0.387
7.76617	0.54
7.80707	0.568
7.84796	0.529
7.88885	0.569
7.92975	0.694
7.97064	0.737
8.01154	0.761
8.05243	0.776
8.09333	0.791
8.13422	0.795
8.17511	0.786
8.21601	0.79
8.2569	0.8
8.2978	0.798
8.33869	0.767
8.37958	0.759
8.42048	0.773
8.46137	0.771
8.50227	0.791
8.54316	0.795
8.58405	0.784
8.62495	0.759
8.66584	0.709
8.70674	0.634
8.74763	0.554
8.78852	0.523
8.82942	0.547
8.87031	0.595
8.91121	0.627
8.9521	0.66
8.993	0.697
9.03389	0.732
9.07478	0.757
9.11568	0.784
9.15657	0.8
9.19747	0.812
9.23836	0.824
9.27925	0.827
9.32015	0.831
9.36104	0.832
9.40194	0.839
9.44283	0.848
9.48372	0.858
9.52462	0.86
9.56551	0.861
9.60641	0.861
9.6473	0.863
9.68819	0.865
9.72909	0.868
9.76998	0.87
9.81088	0.872
9.85177	0.875
9.89267	0.878
9.93356	0.89
9.97445	0.899
10.0153	0.906
10.0562	0.912
10.0971	0.918
10.138	0.911
10.1789	0.899
10.2198	0.895
10.2607	0.904
10.3016	0.904
10.3425	0.899
10.3834	0.895
10.4243	0.906
10.4652	0.918
10.5061	0.923
10.547	0.924
10.5879	0.919
10.6288	0.928
10.6697	0.933
10.7105	0.943
10.7514	0.948
10.7923	0.952
10.8332	0.953
10.8741	0.95
10.915	0.952
10.9559	0.95
10.9968	0.95
11.0377	0.952
11.0786	0.957
11.1195	0.964
11.1604	0.967
11.2013	0.967
11.2422	0.96
11.2831	0.953
11.324	0.948
11.3649	0.947
11.4057	0.945
11.4466	0.952
11.4875	0.957
11.5284	0.957
11.5693	0.957
11.6102	0.953
11.6511	0.948
11.692	0.945
11.7329	0.941
11.7738	0.936
11.8147	0.936
11.8556	0.931
11.8965	0.919
11.9374	0.901
11.9783	0.88
12.0192	0.849
12.0601	0.825
12.1009	0.817
12.1418	0.817
12.1827	0.808
12.2236	0.802
12.2645	0.802
12.3054	0.802
12.3463	0.803
12.3872	0.807
12.4281	0.808
12.469	0.81
12.5099	0.812
12.5508	0.813
12.5917	0.819
12.6326	0.822
12.6735	0.827
12.7144	0.832
12.7553	0.837
12.7961	0.839
12.837	0.837
12.8779	0.836
12.9188	0.831
12.9597	0.827
13.0006	0.815
13.0415	0.803
13.0824	0.798
13.1233	0.796
13.1642	0.786
13.2051	0.776
13.246	0.755
13.2869	0.733
13.3278	0.716
13.3687	0.694
13.4096	0.665
13.4505	0.646
13.4913	0.634
13.5322	0.631
13.5731	0.624
13.614	0.622
13.6549	0.617
13.6958	0.607
13.7367	0.6
13.7776	0.595
13.8185	0.587
13.8594	0.581
13.9003	0.576
13.9412	0.576
13.9821	0.578
14.023	0.588
14.0639	0.59
14.1048	0.597
14.1457	0.598
14.1865	0.593
14.2274	0.585
14.2683	0.58
14.3092	0.563
14.3501	0.554
14.391	0.549
14.4319	0.539
14.4728	0.534
14.5137	0.529
14.5546	0.529
14.5955	0.534
14.6364	0.537
14.6773	0.539
14.7182	0.542
14.7591	0.547
14.8	0.551
14.8408	0.552
14.8817	0.552
14.9226	0.552
14.9635	0.547
15.0044	0.551
15.0453	0.549
15.0862	0.549
15.1271	0.549
15.168	0.547
15.2089	0.547
15.2498	0.544
15.2907	0.542
15.3316	0.54
15.3725	0.537
15.4134	0.534
15.4543	0.529
15.4952	0.525
15.536	0.522
15.5769	0.518
15.6178	0.513
15.6587	0.511
15.6996	0.506
15.7405	0.496
15.7814	0.482
15.8223	0.479
15.8632	0.476
15.9041	0.476
15.945	0.477
15.9859	0.479
