Infrared Spectrum: Leucine, N-amino-
Formula: C6 H14 N2 O2
CAS: 89937-51-9
State: SOLID (0.95 mg / 655 mg KBr DISC)
Class: COBLENTZ III
Instrument: PERKIN-ELMER 21 (GRATING)
Instrument parameters: FILTER CHANGE ABOUT 1085 CM^-^1
Sampling: TRANSMISSION
Resolution: 2
Origin: SOUTHERN RESEARCH INSTITUTE
1/CM	TRANSMITTANCE
662.753	0.8092
670.792	0.7675
678.831	0.7404
686.87	0.6075
694.909	0.2996
702.947	0.4402
710.986	0.6806
719.025	0.7956
727.064	0.8179
735.103	0.8141
743.142	0.6884
751.181	0.8345
759.22	0.8329
767.258	0.8279
775.297	0.8122
783.336	0.7761
791.375	0.7324
799.414	0.5335
807.453	0.2099
815.492	0.5085
823.531	0.7865
831.57	0.8013
839.608	0.727
847.647	0.5856
855.686	0.7794
863.725	0.6898
871.764	0.5027
879.803	0.3053
887.842	0.586
895.881	0.7801
903.919	0.8251
911.958	0.8421
919.997	0.8437
928.036	0.8197
936.075	0.7924
944.114	0.7525
952.153	0.6041
960.192	0.7726
968.231	0.7715
976.269	0.8265
984.308	0.837
992.347	0.8248
1000.39	0.8196
1008.42	0.7703
1016.46	0.6546
1024.5	0.7717
1032.54	0.7549
1040.58	0.6974
1048.62	0.5501
1056.66	0.5314
1064.7	0.7353
1072.74	0.7671
1080.77	0.7127
1088.81	0.7521
1096.85	0.7372
1104.89	0.6537
1112.93	0.7005
1120.97	0.7068
1129.01	0.5952
1137.05	0.6574
1145.09	0.591
1153.12	0.46
1161.16	0.6779
1169.2	0.689
1177.24	0.6507
1185.28	0.7452
1193.32	0.7348
1201.36	0.7005
1209.4	0.6231
1217.44	0.525
1225.47	0.6324
1233.51	0.7285
1241.55	0.6635
1249.59	0.6443
1257.63	0.7256
1265.67	0.7307
1273.71	0.728
1281.75	0.7041
1289.79	0.6813
1297.82	0.6635
1305.86	0.474
1313.9	0.5467
1321.94	0.5956
1329.98	0.5082
1338.02	0.3005
1346.06	0.132
1354.1	0.2863
1362.14	0.2797
1370.17	0.4439
1378.21	0.4083
1386.25	0.4649
1394.29	0.3196
1402.33	0.1851
1410.37	0.1026
1418.41	0.1536
1426.45	0.3806
1434.49	0.5039
1442.52	0.4939
1450.56	0.4521
1458.6	0.4079
1466.64	0.3301
1474.68	0.2283
1482.72	0.3222
1490.76	0.2737
1498.8	0.178
1506.84	0.0725
1514.87	0.0488
1522.91	0.0746
1530.95	0.0819
1538.99	0.1439
1547.03	0.2973
1555.07	0.3839
1563.11	0.396
1571.15	0.368
1579.19	0.2704
1587.22	0.1625
1595.26	0.1049
1603.3	0.1353
1611.34	0.2041
1619.38	0.2424
1627.42	0.1851
1635.46	0.0934
1643.5	0.1491
1651.54	0.2709
1659.57	0.4265
1667.61	0.4989
1675.65	0.5669
1683.69	0.6056
1691.73	0.6417
1699.77	0.6712
1707.81	0.6948
1715.85	0.7119
1723.89	0.7265
1731.92	0.7376
1739.96	0.7461
1748	0.7546
1756.04	0.77
1764.08	0.7793
1772.12	0.7836
1780.16	0.7868
1788.2	0.788
1796.24	0.7904
1804.27	0.7941
1812.31	0.7957
1820.35	0.7963
1828.39	0.7979
1836.43	0.8036
1844.47	0.8047
1852.51	0.8051
1860.55	0.8085
1868.59	0.8051
1876.62	0.8061
1884.66	0.8073
1892.7	0.8156
1900.74	0.8162
1908.78	0.8204
1916.82	0.814
1924.86	0.8132
1932.9	0.8134
1940.94	0.8114
1948.97	0.8101
1957.01	0.819
1965.05	0.8227
1973.09	0.8241
1981.13	0.8216
1989.17	0.8218
1997.21	0.8215
2005.25	0.8206
2013.29	0.8206
2021.32	0.8209
2029.36	0.822
2037.4	0.8211
2045.44	0.8184
2053.48	0.8146
2061.52	0.8098
2069.56	0.8042
2077.6	0.7971
2085.64	0.781
2093.67	0.7712
2101.71	0.7636
2109.75	0.755
2117.79	0.745
2125.83	0.7341
2133.87	0.7166
2141.91	0.6815
2149.95	0.6471
2157.99	0.6168
2166.02	0.5907
2174.06	0.5741
2182.1	0.5434
2190.14	0.5186
2198.18	0.4903
2206.22	0.4967
2214.26	0.5424
2222.3	0.57
2230.34	0.6017
2238.37	0.6256
2246.41	0.645
2254.45	0.6633
2262.49	0.6797
2270.53	0.6917
2278.57	0.7061
2286.61	0.7108
2294.65	0.7091
2302.69	0.7048
2310.72	0.6996
2318.76	0.6882
2326.8	0.6758
2334.84	0.6667
2342.88	0.6576
2350.92	0.6493
2358.96	0.643
2367	0.6293
2375.04	0.6212
2383.07	0.6173
2391.11	0.6101
2399.15	0.6033
2407.19	0.5956
2415.23	0.5868
2423.27	0.5767
2431.31	0.5641
2439.35	0.5503
2447.39	0.5344
2455.42	0.5164
2463.46	0.5005
2471.5	0.4838
2479.54	0.4673
2487.58	0.4501
2495.62	0.4325
2503.66	0.4171
2511.7	0.4009
2519.73	0.3862
2527.77	0.3723
2535.81	0.3584
2543.85	0.3428
2551.89	0.3271
2559.93	0.3096
2567.97	0.294
2576.01	0.2792
2584.05	0.2646
2592.08	0.2518
2600.12	0.2348
2608.16	0.2173
2616.2	0.2071
2624.24	0.2137
2632.28	0.2157
2640.32	0.2221
2648.36	0.2206
2656.4	0.2162
2664.43	0.2106
2672.47	0.2032
2680.51	0.1933
2688.55	0.1823
2696.59	0.1778
2704.63	0.1756
2712.67	0.1744
2720.71	0.1747
2728.75	0.1857
2736.78	0.2083
2744.82	0.2137
2752.86	0.2158
2760.9	0.2157
2768.94	0.2155
2776.98	0.2158
2785.02	0.2079
2793.06	0.1983
2801.1	0.1952
2809.13	0.1895
2817.17	0.1906
2825.21	0.1896
2833.25	0.1827
2841.29	0.1646
2849.33	0.1635
2857.37	0.1702
2865.41	0.1752
2873.45	0.1838
2881.48	0.1735
2889.52	0.1619
2897.56	0.1521
2905.6	0.1324
2913.64	0.1137
2921.68	0.0963
2929.72	0.0855
2937.76	0.0799
2945.8	0.08
2953.83	0.092
2961.87	0.1295
2969.91	0.1532
2977.95	0.1619
2985.99	0.1694
2994.03	0.1755
3002.07	0.1823
3010.11	0.1909
3018.15	0.205
3026.18	0.2212
3034.22	0.2296
3042.26	0.2513
3050.3	0.2682
3058.34	0.2827
3066.38	0.3074
3074.42	0.3233
3082.46	0.3555
3090.5	0.3835
3098.53	0.4065
3106.57	0.4293
3114.61	0.4562
3122.65	0.4798
3130.69	0.4934
3138.73	0.5182
3146.77	0.5323
3154.81	0.5462
3162.85	0.5591
3170.88	0.5673
3178.92	0.5736
3186.96	0.5812
3195	0.5805
3203.04	0.5757
3211.08	0.5542
3219.12	0.5202
3227.16	0.4428
3235.2	0.3405
3243.23	0.3706
3251.27	0.4794
3259.31	0.5363
3267.35	0.5627
3275.39	0.5927
3283.43	0.596
3291.47	0.6171
3299.51	0.6178
3307.55	0.6195
3315.58	0.6217
3323.62	0.6248
3331.66	0.6317
3339.7	0.63
3347.74	0.638
3355.78	0.6358
3363.82	0.6304
3371.86	0.6351
3379.9	0.6392
3387.93	0.6275
3395.97	0.6267
3404.01	0.6304
3412.05	0.6307
3420.09	0.6277
3428.13	0.627
3436.17	0.6339
3444.21	0.6343
3452.25	0.6377
3460.28	0.6492
3468.32	0.6523
3476.36	0.6573
3484.4	0.6632
3492.44	0.6697
3500.48	0.6764
3508.52	0.6836
3516.56	0.6899
3524.6	0.6952
3532.63	0.7
3540.67	0.7031
3548.71	0.7099
3556.75	0.7209
3564.79	0.7304
3572.83	0.7393
3580.87	0.7478
3588.91	0.7557
3596.95	0.7619
3604.98	0.7677
3613.02	0.7733
3621.06	0.7789
3629.1	0.7843
3637.14	0.7896
3645.18	0.7926
3653.22	0.7941
3661.26	0.7998
3669.3	0.8031
3677.33	0.7998
3685.37	0.8017
3693.41	0.8072
3701.45	0.8121
3709.49	0.8142
3717.53	0.8167
3725.57	0.8214
3733.61	0.8265
3741.65	0.8316
3749.68	0.8288
3757.72	0.817
3765.76	0.8138
3773.8	0.8206
3781.84	0.8267
3789.88	0.8258
3797.92	0.823
3805.96	0.8237
3814	0.827
