Infrared Spectrum: CROTONAMIDE, 2-CYANO-3-(ETHOXY)THIO-
Formula: C7 H10 N2 O S
CAS: 89943-20-4
State: SOLID (KBr PELLET)
Melting point: 172-173 C
Class: COBLENTZ
Instrument: Not specified, most likely a prism, grating, or hybrid spectrometer.
Sampling: TRANSMISSION
Resolution: 4
Origin: TENNESSEE EASTMAN COMPANY, RESEARCH LABORATORIES
MICROMETERS	TRANSMITTANCE
2.014	0.775
2.05517	0.78
2.09633	0.782
2.1375	0.792
2.17867	0.799
2.21983	0.801
2.261	0.802
2.30216	0.811
2.34333	0.821
2.3845	0.828
2.42566	0.835
2.46683	0.838
2.508	0.843
2.54916	0.85
2.59033	0.85
2.6315	0.852
2.67266	0.854
2.71383	0.854
2.755	0.823
2.79616	0.801
2.83733	0.765
2.87849	0.631
2.91966	0.492
2.96083	0.692
3.00199	0.162
3.04316	0.506
3.08433	0.699
3.12549	0.73
3.16666	0.84
3.20783	0.864
3.24899	0.876
3.29016	0.878
3.33133	0.801
3.37249	0.785
3.41366	0.835
3.45482	0.837
3.49599	0.879
3.53716	0.903
3.57832	0.915
3.61949	0.919
3.66066	0.921
3.70182	0.926
3.74299	0.933
3.78416	0.933
3.82532	0.933
3.86649	0.933
3.90766	0.934
3.94882	0.939
3.98999	0.946
4.03115	0.946
4.07232	0.943
4.11349	0.945
4.15465	0.945
4.19582	0.939
4.23699	0.919
4.27815	0.915
4.31932	0.926
4.36049	0.943
4.40165	0.945
4.44282	0.929
4.48399	0.384
4.52515	0.931
4.56632	0.933
4.60748	0.946
4.64865	0.948
4.68982	0.948
4.73098	0.95
4.77215	0.953
4.81332	0.96
4.85448	0.96
4.89565	0.96
4.93682	0.953
4.97798	0.962
5.01915	0.962
5.06032	0.96
5.10148	0.96
5.14265	0.962
5.18381	0.962
5.22498	0.962
5.26615	0.962
5.30731	0.962
5.34848	0.953
5.38965	0.951
5.43081	0.943
5.47198	0.945
5.51315	0.953
5.55431	0.951
5.59548	0.95
5.63665	0.938
5.67781	0.927
5.71898	0.879
5.76014	0.893
5.80131	0.91
5.84248	0.905
5.88364	0.873
5.92481	0.873
5.96598	0.864
6.00714	0.864
6.04831	0.838
6.08948	0.801
6.13064	0.74
6.17181	0.552
6.21297	0.061
6.25414	0.413
6.29531	0.634
6.33647	0.307
6.37764	0.065
6.41881	0.132
6.45997	0.478
6.50114	0.644
6.54231	0.704
6.58347	0.754
6.62464	0.787
6.66581	0.782
6.70697	0.751
6.74814	0.656
6.7893	0.382
6.83047	0.423
6.87164	0.262
6.9128	0.18
6.95397	0.236
6.99514	0.183
7.0363	0.394
7.07747	0.461
7.11864	0.353
7.1598	0.319
7.20097	0.542
7.24214	0.566
7.2833	0.535
7.32447	0.684
7.36563	0.728
7.4068	0.751
7.44797	0.744
7.48913	0.725
7.5303	0.687
7.57147	0.612
7.61263	0.475
7.6538	0.322
7.69497	0.162
7.73613	0.118
7.7773	0.176
7.81847	0.277
7.85963	0.31
7.9008	0.32
7.94196	0.403
7.98313	0.518
8.0243	0.617
8.06546	0.662
8.10663	0.701
8.1478	0.732
8.18896	0.716
8.23013	0.591
8.2713	0.325
8.31246	0.319
8.35363	0.252
8.3948	0.389
8.43596	0.612
8.47713	0.699
8.51829	0.703
8.55946	0.699
8.60063	0.689
8.64179	0.684
8.68296	0.679
8.72413	0.73
8.76529	0.771
8.80646	0.801
8.84763	0.804
8.88879	0.804
8.92996	0.804
8.97113	0.806
9.01229	0.831
9.05346	0.847
9.09462	0.861
9.13579	0.862
9.17696	0.864
9.21812	0.867
9.25929	0.874
9.30046	0.874
9.34162	0.876
9.38279	0.878
9.42396	0.866
9.46512	0.813
9.50629	0.778
9.54746	0.801
9.58862	0.754
9.62979	0.603
9.67095	0.334
9.71212	0.234
9.75329	0.185
9.79445	0.161
9.83562	0.36
9.87679	0.56
9.91795	0.682
9.95912	0.744
10.0003	0.765
10.0415	0.768
10.0826	0.722
10.1238	0.687
10.165	0.747
10.2061	0.814
10.2473	0.854
10.2885	0.876
10.3296	0.891
10.3708	0.9
10.4119	0.903
10.4531	0.909
10.4943	0.915
10.5354	0.921
10.5766	0.924
10.6178	0.926
10.6589	0.927
10.7001	0.929
10.7413	0.931
10.7824	0.929
10.8236	0.927
10.8648	0.924
10.9059	0.915
10.9471	0.907
10.9883	0.902
11.0294	0.895
11.0706	0.89
11.1118	0.879
11.1529	0.852
11.1941	0.807
11.2353	0.73
11.2764	0.547
11.3176	0.296
11.3588	0.14
11.3999	0.164
11.4411	0.356
11.4823	0.567
11.5234	0.708
11.5646	0.787
11.6058	0.837
11.6469	0.857
11.6881	0.874
11.7293	0.893
11.7704	0.905
11.8116	0.912
11.8528	0.917
11.8939	0.922
11.9351	0.924
11.9763	0.924
12.0174	0.915
12.0586	0.876
12.0998	0.806
12.1409	0.749
12.1821	0.761
12.2233	0.842
12.2644	0.883
12.3056	0.91
12.3468	0.926
12.3879	0.933
12.4291	0.938
12.4703	0.945
12.5114	0.951
12.5526	0.953
12.5938	0.955
12.6349	0.957
12.6761	0.957
12.7173	0.957
12.7584	0.957
12.7996	0.957
12.8408	0.957
12.8819	0.957
12.9231	0.957
12.9643	0.957
13.0054	0.957
13.0466	0.957
13.0878	0.957
13.1289	0.957
13.1701	0.957
13.2113	0.953
13.2524	0.95
13.2936	0.95
13.3348	0.948
13.3759	0.95
13.4171	0.95
13.4583	0.943
13.4994	0.939
13.5406	0.936
13.5818	0.929
13.6229	0.924
13.6641	0.921
13.7053	0.91
13.7464	0.902
13.7876	0.897
13.8288	0.893
13.8699	0.893
13.9111	0.897
13.9523	0.905
13.9934	0.922
14.0346	0.931
14.0758	0.945
14.1169	0.957
14.1581	0.962
14.1993	0.967
14.2404	0.975
14.2816	0.979
14.3228	0.982
14.3639	0.984
14.4051	0.982
14.4463	0.974
14.4874	0.948
14.5286	0.907
14.5698	0.84
14.6109	0.749
14.6521	0.701
14.6933	0.686
14.7344	0.711
14.7756	0.775
14.8168	0.833
14.8579	0.874
14.8991	0.903
14.9403	0.922
14.9814	0.922
15.0226	0.926
15.0638	0.931
15.1049	0.938
15.1461	0.939
15.1873	0.941
15.2284	0.941
15.2696	0.941
15.3108	0.939
15.3519	0.936
15.3931	0.931
15.4343	0.927
15.4754	0.919
15.5166	0.91
15.5578	0.898
15.5989	0.893
15.6401	0.885
15.6813	0.873
15.7224	0.861
15.7636	0.85
15.8048	0.842
15.8459	0.828
15.8871	0.813
15.9283	0.801
15.9694	0.792
