Infrared Spectrum: ETHYLAMINE, 2-(2-METHOXY-1-METHYLETHOXY)-1-METHYL-
Formula: C7 H17 N O2
CAS: 89979-85-1
State: LIQUID (NEAT)
Boiling point: 176 C, AT 750 mmHg
Class: COBLENTZ III
Instrument: BAIRD (GRATING)
Instrument parameters: NaCl PRISM
Path length: 0.003 CM
Resolution: 2
Origin: WYANDOTTE CHEMICALS CORP.
1/CM	TRANSMITTANCE
624.827	0.6983
633.704	0.7129
642.58	0.7225
651.457	0.7265
660.334	0.7571
669.21	0.7887
678.087	0.805
686.963	0.813
695.84	0.8139
704.717	0.8117
713.593	0.8018
722.47	0.7867
731.347	0.7649
740.223	0.7428
749.1	0.7065
757.977	0.6593
766.853	0.5999
775.73	0.523
784.606	0.4289
793.483	0.2531
802.36	0.1984
811.236	0.1359
820.113	0.1005
828.99	0.0922
837.866	0.1315
846.743	0.1114
855.62	0.1023
864.496	0.1174
873.373	0.126
882.25	0.1377
891.126	0.1493
900.003	0.1538
908.879	0.1723
917.756	0.2047
926.633	0.2629
935.509	0.2393
944.386	0.2402
953.263	0.2367
962.139	0.1731
971.016	0.1926
979.893	0.4248
988.769	0.5833
997.646	0.593
1006.52	0.5067
1015.4	0.4688
1024.28	0.3656
1033.15	0.3249
1042.03	0.3301
1050.91	0.2677
1059.78	0.1202
1068.66	0.0378
1077.54	0.0251
1086.41	0.0226
1095.29	0.0162
1104.17	0.014
1113.04	0.0144
1121.92	0.0165
1130.8	0.0185
1139.67	0.0212
1148.55	0.0269
1157.43	0.0274
1166.3	0.0522
1175.18	0.168
1184.06	0.3046
1192.93	0.2924
1201.81	0.086
1210.69	0.242
1219.56	0.4289
1228.44	0.5144
1237.32	0.5242
1246.19	0.4953
1255.07	0.477
1263.94	0.4531
1272.82	0.5261
1281.7	0.5559
1290.57	0.5457
1299.45	0.4778
1308.33	0.3083
1317.2	0.3466
1326.08	0.4011
1334.96	0.4457
1343.83	0.2842
1352.71	0.286
1361.59	0.2694
1370.46	0.1832
1379.34	0.1686
1388.22	0.2178
1397.09	0.307
1405.97	0.443
1414.85	0.5928
1423.72	0.6445
1432.6	0.5893
1441.48	0.4157
1450.35	0.2443
1459.23	0.1
1468.11	0.104
1476.98	0.1792
1485.86	0.3335
1494.74	0.6119
1503.61	0.6893
1512.49	0.7285
1521.37	0.7098
1530.24	0.6527
1539.12	0.6449
1548	0.6486
1556.87	0.6484
1565.75	0.608
1574.63	0.553
1583.5	0.4987
1592.38	0.445
1601.26	0.4082
1610.13	0.4381
1619.01	0.495
1627.89	0.5513
1636.76	0.6071
1645.64	0.6511
1654.52	0.7045
1663.39	0.7281
1672.27	0.7609
1681.15	0.7988
1690.02	0.8238
1698.9	0.8429
1707.78	0.8596
1716.65	0.8711
1725.53	0.8888
1734.41	0.9027
1743.28	0.9109
1752.16	0.9192
1761.04	0.9253
1769.91	0.9319
1778.79	0.9369
1787.67	0.9388
1796.54	0.9365
1805.42	0.9333
1814.3	0.9312
1823.17	0.9303
1832.05	0.9308
1840.93	0.9314
1849.8	0.932
1858.68	0.9322
1867.56	0.931
1876.43	0.927
1885.31	0.9211
1894.19	0.9156
1903.06	0.9129
1911.94	0.911
1920.82	0.9089
1929.69	0.9046
1938.57	0.9007
1947.45	0.8968
1956.32	0.8931
1965.2	0.8911
1974.08	0.8892
1982.95	0.8877
1991.83	0.8865
2000.71	0.8833
2009.58	0.8796
2018.46	0.877
2027.34	0.8752
2036.21	0.8767
2045.09	0.8802
2053.97	0.8871
2062.84	0.8977
2071.72	0.9076
2080.6	0.9082
2089.47	0.9113
2098.35	0.9166
2107.23	0.92
2116.1	0.9218
2124.98	0.9214
2133.86	0.9188
2142.73	0.9161
2151.61	0.9152
2160.49	0.9165
2169.36	0.9199
2178.24	0.9233
2187.12	0.9273
2195.99	0.9276
2204.87	0.9274
2213.75	0.9273
2222.62	0.9269
2231.5	0.926
2240.38	0.9252
2249.25	0.9243
2258.13	0.923
2267.01	0.9215
2275.88	0.9201
2284.76	0.9196
2293.63	0.9198
2302.51	0.9202
2311.39	0.921
2320.26	0.9209
2329.14	0.9206
2338.02	0.9188
2346.89	0.9166
2355.77	0.9162
2364.65	0.9198
2373.52	0.9245
2382.4	0.9298
2391.28	0.9299
2400.15	0.928
2409.03	0.9249
2417.91	0.9207
2426.78	0.9187
2435.66	0.9173
2444.54	0.9158
2453.41	0.9149
2462.29	0.914
2471.17	0.9132
2480.04	0.9122
2488.92	0.9113
2497.8	0.9105
2506.67	0.9067
2515.55	0.8979
2524.43	0.8871
2533.3	0.8759
2542.18	0.8652
2551.06	0.8529
2559.93	0.8406
2568.81	0.8284
2577.69	0.8211
2586.56	0.82
2595.44	0.8193
2604.32	0.8188
2613.19	0.8148
2622.07	0.8044
2630.95	0.79
2639.82	0.7755
2648.7	0.757
2657.58	0.7409
2666.45	0.735
2675.33	0.7332
2684.21	0.7219
2693.08	0.6683
2701.96	0.623
2710.84	0.5845
2719.71	0.537
2728.59	0.5082
2737.47	0.4866
2746.34	0.462
2755.22	0.4281
2764.1	0.3305
2772.97	0.1229
2781.85	0.0859
2790.73	0.0673
2799.6	0.0511
2808.48	0.0372
2817.36	0.0296
2826.23	0.0257
2835.11	0.0232
2843.99	0.0216
2852.86	0.0207
2861.74	0.0208
2870.62	0.0213
2879.49	0.0227
2888.37	0.0248
2897.25	0.0274
2906.12	0.0295
2915	0.0301
2923.88	0.023
2932.75	0.0108
2941.63	0.0015
2950.51	0.0005
2959.38	0.0004
2968.26	0.0483
2977.14	0.1592
2986.01	0.2694
2994.89	0.3789
3003.77	0.4878
3012.64	0.614
3021.52	0.711
3030.4	0.734
3039.27	0.7521
3048.15	0.7706
3057.03	0.782
3065.9	0.7949
3074.78	0.8056
3083.66	0.8103
3092.53	0.811
3101.41	0.8104
3110.29	0.8083
3119.16	0.8044
3128.04	0.7985
3136.92	0.789
3145.79	0.7784
3154.67	0.7688
3163.55	0.7587
3172.42	0.7512
3181.3	0.7472
3190.18	0.7449
3199.05	0.7429
3207.93	0.741
3216.81	0.7395
3225.68	0.7343
3234.56	0.7147
3243.44	0.6943
3252.31	0.674
3261.19	0.6538
3270.07	0.6405
3278.94	0.6545
3287.82	0.6802
3296.7	0.6975
3305.57	0.6913
3314.45	0.6086
3323.32	0.5336
3332.2	0.5474
3341.08	0.6157
3349.95	0.6837
3358.83	0.7837
3367.71	0.8007
3376.58	0.8148
3385.46	0.8296
3394.34	0.8407
3403.21	0.8502
3412.09	0.8617
3420.97	0.8732
3429.84	0.8781
3438.72	0.8821
3447.6	0.8859
3456.47	0.8896
3465.35	0.8921
3474.23	0.8946
3483.1	0.8972
3491.98	0.8996
3500.86	0.902
3509.73	0.9044
3518.61	0.9071
3527.49	0.9101
3536.36	0.9131
3545.24	0.916
3554.12	0.92
3562.99	0.9242
3571.87	0.9286
3580.75	0.933
3589.62	0.9374
3598.5	0.9418
3607.38	0.9469
3616.25	0.9525
3625.13	0.9563
3634.01	0.9586
3642.88	0.9604
3651.76	0.9614
3660.64	0.9622
3669.51	0.9626
3678.39	0.9629
3687.27	0.9634
3696.14	0.9636
3705.02	0.9636
3713.9	0.9635
3722.77	0.9635
3731.65	0.9634
3740.53	0.9634
3749.4	0.9634
3758.28	0.9631
3767.16	0.9628
3776.03	0.9625
3784.91	0.9622
3793.79	0.9619
3802.66	0.9614
3811.54	0.9607
3820.42	0.96
3829.29	0.9593
3838.17	0.9586
3847.05	0.9579
3855.92	0.9569
3864.8	0.9558
3873.68	0.9547
3882.55	0.9537
3891.43	0.9525
3900.31	0.9509
3909.18	0.9493
3918.06	0.9476
3926.94	0.9458
3935.81	0.9441
3944.69	0.9424
