Infrared Spectrum: 5-CARBETHOXY-4-OXO-1,3,3a,7-TETRAZAINDENE
Formula: C8 H8 N4 O3
CAS: 89977-78-6
State: SOLID (KBr PRESSING)
Melting point: 252-253 C
Class: COBLENTZ
Instrument: Not specified, most likely a prism, grating, or hybrid spectrometer.
Sampling: TRANSMISSION
Resolution: 4
Origin: EASTMAN KODAK COMPANY, RESEARCH LABORATORIES, ROCHESTER, N.Y.
MICROMETERS	TRANSMITTANCE
2.079	0.819
2.11415	0.826
2.14931	0.829
2.18446	0.833
2.21962	0.835
2.25477	0.835
2.28992	0.845
2.32508	0.861
2.36023	0.866
2.39539	0.875
2.43054	0.878
2.46569	0.884
2.50085	0.889
2.536	0.901
2.57116	0.91
2.60631	0.912
2.64146	0.915
2.67662	0.921
2.71177	0.921
2.74693	0.889
2.78208	0.742
2.81723	0.547
2.85239	0.389
2.88754	0.338
2.9227	0.35
2.95785	0.357
2.99301	0.38
3.02816	0.382
3.06331	0.385
3.09847	0.403
3.13362	0.407
3.16878	0.389
3.20393	0.335
3.23908	0.261
3.27424	0.289
3.30939	0.287
3.34455	0.261
3.3797	0.256
3.41485	0.294
3.45001	0.294
3.48516	0.31
3.52032	0.345
3.55547	0.37
3.59062	0.364
3.62578	0.359
3.66093	0.366
3.69609	0.389
3.73124	0.412
3.76639	0.431
3.80155	0.461
3.8367	0.477
3.87186	0.5
3.90701	0.512
3.94216	0.519
3.97732	0.528
4.01247	0.556
4.04763	0.563
4.08278	0.575
4.11793	0.598
4.15309	0.61
4.18824	0.624
4.2234	0.626
4.25855	0.636
4.2937	0.64
4.32886	0.675
4.36401	0.691
4.39917	0.714
4.43432	0.728
4.46947	0.742
4.50463	0.771
4.53978	0.773
4.57494	0.78
4.61009	0.801
4.64524	0.803
4.6804	0.81
4.71555	0.814
4.75071	0.821
4.78586	0.835
4.82102	0.831
4.85617	0.826
4.89132	0.812
4.92648	0.81
4.96163	0.803
4.99679	0.794
5.03194	0.782
5.06709	0.768
5.10225	0.759
5.1374	0.75
5.17256	0.738
5.20771	0.733
5.24286	0.71
5.27802	0.692
5.31317	0.682
5.34833	0.67
5.38348	0.656
5.41863	0.652
5.45379	0.65
5.48894	0.635
5.5241	0.603
5.55925	0.564
5.5944	0.501
5.62956	0.405
5.66471	0.312
5.69987	0.129
5.73502	0.092
5.77017	0.077
5.80533	0.052
5.84048	0.043
5.87564	0.036
5.91079	0.049
5.94594	0.087
5.9811	0.129
6.01625	0.192
6.05141	0.201
6.08656	0.177
6.12171	0.135
6.15687	0.138
6.19202	0.18
6.22718	0.228
6.26233	0.07
6.29748	0.035
6.33264	0.035
6.36779	0.071
6.40295	0.133
6.4381	0.168
6.47326	0.149
6.50841	0.145
6.54356	0.178
6.57872	0.222
6.61387	0.294
6.64903	0.321
6.68418	0.345
6.71933	0.371
6.75449	0.315
6.78964	0.249
6.8248	0.252
6.85995	0.31
6.8951	0.356
6.93026	0.405
6.96541	0.475
7.00057	0.515
7.03572	0.508
7.07087	0.468
7.10603	0.436
7.14118	0.487
7.17634	0.536
7.21149	0.515
7.24664	0.531
7.2818	0.492
7.31695	0.319
7.35211	0.456
7.38726	0.575
7.42241	0.447
7.45757	0.222
7.49272	0.17
7.52788	0.159
7.56303	0.164
7.59818	0.133
7.63334	0.108
7.66849	0.092
7.70365	0.092
7.7388	0.084
7.77395	0.103
7.80911	0.108
7.84426	0.149
7.87942	0.21
7.91457	0.314
7.94972	0.3
7.98488	0.308
8.02003	0.361
8.05519	0.391
8.09034	0.422
8.12549	0.463
8.16065	0.484
8.1958	0.5
8.23096	0.473
8.26611	0.44
8.30127	0.34
8.33642	0.284
8.37157	0.264
8.40673	0.25
8.44188	0.166
8.47704	0.117
8.51219	0.129
8.54734	0.147
8.5825	0.156
8.61765	0.159
8.65281	0.159
8.68796	0.159
8.72311	0.2
8.75827	0.256
8.79342	0.292
8.82858	0.256
8.86373	0.214
8.89888	0.189
8.93404	0.224
8.96919	0.249
9.00435	0.296
9.0395	0.361
9.07465	0.338
9.10981	0.407
9.14496	0.449
9.18012	0.463
9.21527	0.482
9.25042	0.514
9.28558	0.524
9.32073	0.535
9.35589	0.535
9.39104	0.54
9.42619	0.55
9.46135	0.547
9.4965	0.531
9.53166	0.512
9.56681	0.491
9.60196	0.456
9.63712	0.405
9.67227	0.331
9.70743	0.298
9.74258	0.277
9.77773	0.282
9.81289	0.319
9.84804	0.361
9.8832	0.426
9.91835	0.471
9.95351	0.5
9.98866	0.535
10.0238	0.552
10.059	0.55
10.0941	0.561
10.1293	0.554
10.1644	0.514
10.1996	0.522
10.2347	0.535
10.2699	0.531
10.305	0.478
10.3402	0.445
10.3754	0.445
10.4105	0.487
10.4457	0.496
10.4808	0.505
10.516	0.492
10.5511	0.461
10.5863	0.442
10.6214	0.414
10.6566	0.401
10.6917	0.392
10.7269	0.396
10.762	0.408
10.7972	0.419
10.8324	0.426
10.8675	0.447
10.9027	0.45
10.9378	0.473
10.973	0.484
11.0081	0.492
11.0433	0.492
11.0784	0.494
11.1136	0.492
11.1487	0.492
11.1839	0.496
11.2191	0.482
11.2542	0.485
11.2894	0.471
11.3245	0.473
11.3597	0.471
11.3948	0.452
11.43	0.442
11.4651	0.429
11.5003	0.415
11.5354	0.419
11.5706	0.438
11.6057	0.45
11.6409	0.466
11.6761	0.478
11.7112	0.473
11.7464	0.45
11.7815	0.433
11.8167	0.424
11.8518	0.422
11.887	0.408
11.9221	0.403
11.9573	0.403
11.9924	0.405
12.0276	0.435
12.0627	0.443
12.0979	0.452
12.1331	0.473
12.1682	0.496
12.2034	0.508
12.2385	0.51
12.2737	0.515
12.3088	0.515
12.344	0.515
12.3791	0.51
12.4143	0.471
12.4494	0.389
12.4846	0.307
12.5198	0.236
12.5549	0.201
12.5901	0.168
12.6252	0.152
12.6604	0.143
12.6955	0.159
12.7307	0.214
12.7658	0.278
12.801	0.317
12.8361	0.354
12.8713	0.384
12.9064	0.4
12.9416	0.412
12.9768	0.438
13.0119	0.443
13.0471	0.445
13.0822	0.445
13.1174	0.445
13.1525	0.443
13.1877	0.44
13.2228	0.44
13.258	0.435
13.2931	0.426
13.3283	0.414
13.3634	0.384
13.3986	0.349
13.4338	0.343
13.4689	0.363
13.5041	0.373
13.5392	0.364
13.5744	0.373
13.6095	0.389
13.6447	0.403
13.6798	0.422
13.715	0.421
13.7501	0.422
13.7853	0.421
13.8204	0.412
13.8556	0.385
13.8908	0.366
13.9259	0.359
13.9611	0.361
13.9962	0.382
14.0314	0.392
14.0665	0.401
14.1017	0.405
14.1368	0.405
14.172	0.401
14.2071	0.382
14.2423	0.37
14.2775	0.35
14.3126	0.331
14.3478	0.303
14.3829	0.277
14.4181	0.261
14.4532	0.25
14.4884	0.25
14.5235	0.243
14.5587	0.242
14.5938	0.242
14.629	0.252
14.6641	0.291
14.6993	0.303
14.7345	0.321
14.7696	0.326
14.8048	0.329
14.8399	0.338
14.8751	0.34
14.9102	0.361
14.9454	0.384
14.9805	0.331
15.0157	0.292
15.0508	0.333
15.086	0.347
15.1211	0.342
15.1563	0.338
15.1915	0.335
15.2266	0.328
15.2618	0.308
15.2969	0.296
15.3321	0.282
15.3672	0.263
15.4024	0.254
15.4375	0.249
15.4727	0.254
15.5078	0.263
15.543	0.275
15.5782	0.292
15.6133	0.3
15.6485	0.307
15.6836	0.31
15.7188	0.31
15.7539	0.312
15.7891	0.314
15.8242	0.315
15.8594	0.319
15.8945	0.319
15.9297	0.317
15.9648	0.317
16	0.319
