Infrared Spectrum: 2-Hydroxybenzylalcohol
Formula: C 7 H 8 O 2
CAS: 90-01-7
State: gas
Instrument: HP-GC/MS/IRD
Origin: NIST Mass Spectrometry Data Center
1/CM	ABSORBANCE
550	0.00279
562	0.003193
574	0.0024025
586	0.0019933
598	0.002511
610	0.0035774
622	0.0032271
634	0.0017763
646	0.0010447
658	0.0005828
670	0.0003441
682	0.0002263
694	0.0004929
706	0.0015779
718	0.0035867
730	0.0084072
742	0.0178312
754	0.0220472
766	0.0104935
778	0.0022475
790	0.0003534
802	6.51e-05
814	0.0001922
826	0.0011718
838	0.0026505
850	0.0036394
862	0.0029295
874	0.0014663
886	0.0005084
898	0.0004991
910	0.0012245
922	0.0027466
934	0.0040517
946	0.0047089
958	0.006262
970	0.0074586
982	0.0115165
994	0.0191456
1006	0.0191828
1018	0.0127472
1030	0.009393
1042	0.006727
1054	0.0040672
1066	0.0026474
1078	0.0029791
1090	0.0048174
1102	0.0052266
1114	0.0035743
1126	0.0030411
1138	0.0050964
1150	0.0078523
1162	0.0111538
1174	0.0129518
1186	0.0133021
1198	0.0142848
1210	0.0174809
1222	0.0244311
1234	0.031
1246	0.0274257
1258	0.0163494
1270	0.0099386
1282	0.0073346
1294	0.006944
1306	0.0069967
1318	0.0074679
1330	0.0072354
1342	0.0073315
1354	0.0101401
1366	0.0120311
1378	0.0108128
1390	0.0079019
1402	0.0050995
1414	0.0031589
1426	0.0023715
1438	0.0034472
1450	0.0072633
1462	0.0121954
1474	0.0160053
1486	0.0196633
1498	0.0179552
1510	0.0091357
1522	0.0031775
1534	0.0012462
1546	0.0013237
1558	0.0025296
1570	0.0056265
1582	0.010943
1594	0.012617
1606	0.0096565
1618	0.0072726
1630	0.003379
1642	0.000713
1654	0.0006355
1666	0.0012121
1678	0.0016554
1690	0.0011222
1702	0.0005425
1714	0.0002728
1726	4.03e-05
1738	3.1e-05
1750	0.0001457
1762	0.0002511
1774	0.0004154
1786	0.0003937
1798	0.0002976
1810	0.0002015
1822	0.0001054
1834	0
1846	7.75e-05
1858	5.89e-05
1870	0.0001395
1882	0.0003751
1894	0.0005921
1906	0.0004836
1918	0.0004402
1930	0.0005518
1942	0.0003379
1954	6.82e-05
1966	6.2e-05
1978	0.0001116
1990	0.0001891
2002	0.0001271
2014	0.0001147
2026	9.3e-05
2038	0.0001147
2050	8.06e-05
2062	7.75e-05
2074	0.0001271
2086	0.0001612
2098	0.0001488
2110	0.0001023
2122	6.82e-05
2134	4.03e-05
2146	4.65e-05
2158	4.96e-05
2170	6.2e-05
2182	6.2e-05
2194	5.58e-05
2206	7.44e-05
2218	0.000124
2230	0.000155
2242	0.0001612
2254	0.0001612
2266	0.0001581
2278	0.0001488
2290	0.0001705
2302	0.0002418
2314	0.0003162
2326	0.0003844
2338	0.0003782
2350	0.0003007
2362	0.0002852
2374	0.0002139
2386	0.0001798
2398	0.0002139
2410	0.0002046
2422	0.0002418
2434	0.0002542
2446	0.0002759
2458	0.0003596
2470	0.000403
2482	0.0004185
2494	0.0004216
2506	0.0003565
2518	0.0002976
2530	0.0002728
2542	0.0001829
2554	0.0001705
2566	0.0001457
2578	0.0001891
2590	0.0001798
2602	0.000155
2614	0.0001333
2626	0.0001023
2638	6.82e-05
2650	9.92e-05
2662	0.0001085
2674	0.0001333
2686	0.0001705
2698	0.000217
2710	0.0003224
2722	0.0003286
2734	0.0003317
2746	0.0003162
2758	0.00031
2770	0.0003689
2782	0.0004371
2794	0.0005115
2806	0.0006355
2818	0.0007998
2830	0.0011222
2842	0.0015686
2854	0.0023126
2866	0.0035712
2878	0.0054312
2890	0.0064387
2902	0.0054033
2914	0.0043896
2926	0.0050251
2938	0.006076
2950	0.0061008
2962	0.0044578
2974	0.0026753
2986	0.0015996
2998	0.0013392
3010	0.0020398
3022	0.0040052
3034	0.0060791
3046	0.006634
3058	0.0063085
3070	0.0065503
3082	0.0057195
3094	0.0036425
3106	0.0020026
3118	0.0009176
3130	0.0003906
3142	0.0001395
3154	9.92e-05
3166	0.0001054
3178	0.0001209
3190	0.0001054
3202	7.13e-05
3214	9.61e-05
3226	0.0001891
3238	0.0002511
3250	0.0002573
3262	0.0002728
3274	0.0003069
3286	0.0002821
3298	0.0002232
3310	0.0001457
3322	0.000155
3334	0.0002573
3346	0.0003286
3358	0.0003875
3370	0.0004743
3382	0.0005828
3394	0.0008835
3406	0.0013733
3418	0.0020088
3430	0.0025172
3442	0.0029047
3454	0.0030721
3466	0.0035991
3478	0.0051894
3490	0.010509
3502	0.01767
3514	0.019127
3526	0.0145855
3538	0.0099541
3550	0.007192
3562	0.0052824
3574	0.0037944
3586	0.0030659
3598	0.002573
3610	0.0026319
3622	0.0036208
3634	0.0069347
3646	0.0113398
3658	0.0099231
3670	0.0047244
3682	0.001891
3694	0.0009858
3706	0.0005146
3718	0.0003596
3730	0.0003131
3742	0.0002387
3754	0.0001116
3766	0
3778	0
3790	0
3802	0
3814	0
3826	0
3838	6.2e-06
