Infrared Spectrum: Iodonaphthalene
Formula: C 10 H 7 I
CAS: 90-14-2
State: gas
Instrument: HP-GC/MS/IRD
Origin: NIST Mass Spectrometry Data Center
1/CM	ABSORBANCE
550	0.001269
562	0.000423
574	0.0002632
586	0.0003008
598	0.0002397
610	0.0003055
622	0.0003337
634	0.005076
646	0.013536
658	0.0010575
670	4.7e-05
682	5.64e-05
694	7.05e-05
706	0.0002867
718	0.0009259
730	0.0020633
742	0.0033605
754	0.017249
766	0.0377551
778	0.030127
790	0.040091
802	0.01175
814	0.0040373
826	0.0011938
838	0.0007614
850	0.0016403
862	0.0007567
874	0.0003619
886	0.0005781
898	0.0004136
910	0.0003713
922	0.0016779
934	0.0070735
946	0.0213897
958	0.0070124
970	0.0011186
982	0.0003572
994	0.0007708
1006	0.0010011
1018	0.0030691
1030	0.0014993
1042	0.0007614
1054	0.0016309
1066	0.0009447
1078	0.0003243
1090	0.0002726
1102	0.0002867
1114	0.000611
1126	0.0044603
1138	0.0058186
1150	0.0009447
1162	0.0009212
1174	0.0007238
1186	0.0020962
1198	0.0069889
1210	0.0039903
1222	0.0011985
1234	0.0013583
1246	0.0059079
1258	0.0083707
1270	0.0009212
1282	0.0001598
1294	0.0002068
1306	0.0004888
1318	0.0006016
1330	0.0012549
1342	0.0017061
1354	0.0027589
1366	0.0073179
1378	0.0139261
1390	0.0082344
1402	0.001081
1414	0.000893
1426	0.0007567
1438	0.0006486
1450	0.0006909
1462	0.0006439
1474	0.0008977
1486	0.0040373
1498	0.0105985
1510	0.005875
1522	0.0014194
1534	0.0018048
1546	0.0060395
1558	0.010058
1570	0.0029704
1582	0.0029751
1594	0.0027824
1606	0.0011327
1618	0.0010293
1630	0.000799
1642	0.0004888
1654	0.0004982
1666	0.0007285
1678	0.0017719
1690	0.0017437
1702	0.0008178
1714	0.0008883
1726	0.0008789
1738	0.0011045
1750	0.0009776
1762	0.0007426
1774	0.0004183
1786	0.0013442
1798	0.0020257
1810	0.0010058
1822	0.001222
1834	0.0008225
1846	0.0009259
1858	0.0014617
1870	0.0005405
1882	0.0002773
1894	0.0007003
1906	0.0015228
1918	0.0022889
1930	0.001645
1942	0.0014429
1954	0.0008413
1966	0.0001927
1978	5.17e-05
1990	4.7e-05
2002	0.0001081
2014	7.99e-05
2026	7.05e-05
2038	7.52e-05
2050	8.46e-05
2062	9.4e-05
2074	0.0001692
2086	0.0001034
2098	7.05e-05
2110	0.0001222
2122	6.11e-05
2134	7.05e-05
2146	9.87e-05
2158	5.64e-05
2170	2.35e-05
2182	4.7e-06
2194	4.7e-05
2206	5.17e-05
2218	8.93e-05
2230	0.0001363
2242	0.0001927
2254	0.0002115
2266	0.0002209
2278	0.0003196
2290	0.0003854
2302	0.0003055
2314	1.88e-05
2326	4.7e-06
2338	4.7e-06
2350	4.7e-06
2362	4.7e-06
2374	0
2386	0.0002585
2398	0.0003901
2410	0.00047
2422	0.0003854
2434	0.0003149
2446	0.0002585
2458	0.0002256
2470	0.0002162
2482	0.0002256
2494	0.000235
2506	0.0002679
2518	0.0002162
2530	0.0002162
2542	0.0002632
2554	0.0002538
2566	0.0002444
2578	0.0002303
2590	0.0002397
2602	0.0002397
2614	0.0002585
2626	0.0002444
2638	0.0002726
2650	0.0002068
2662	0.0002585
2674	0.0002444
2686	0.0002632
2698	0.0002162
2710	0.0002162
2722	0.0001786
2734	0.0001927
2746	0.0002256
2758	0.0002068
2770	0.0002021
2782	0.0002115
2794	0.0002397
2806	0.000235
2818	0.0002209
2830	0.0001645
2842	0.0002303
2854	0.0002867
2866	0.0003431
2878	0.0003431
2890	0.0003666
2902	0.0003525
2914	0.0004512
2926	0.0006345
2938	0.000705
2950	0.0006721
2962	0.0005781
2974	0.0006627
2986	0.0010716
2998	0.001692
3010	0.0024252
3022	0.0033699
3034	0.0047893
3046	0.0093107
3058	0.0238713
3070	0.020586
3082	0.0143068
3094	0.0075999
3106	0.0026273
3118	0.001128
3130	0.0005781
3142	0.0004935
3154	0.0004982
3166	0.0003948
3178	0.0003619
3190	0.0002773
3202	0.0003243
3214	0.0002914
3226	0.0001598
3238	0.0001316
3250	0.0001269
3262	0.0001034
3274	0.0001598
3286	7.05e-05
3298	9.4e-05
3310	0.0001081
3322	9.4e-05
3334	8.46e-05
3346	7.52e-05
3358	1.41e-05
3370	0.0001222
3382	7.52e-05
3394	7.05e-05
3406	7.99e-05
3418	4.7e-05
3430	0.0001222
3442	0.0001269
3454	8.46e-05
3466	8.93e-05
3478	0.0001363
3490	7.99e-05
3502	0.0001034
3514	8.46e-05
3526	5.64e-05
3538	7.99e-05
3550	0.0001504
3562	0.000141
3574	9.87e-05
3586	0.0001081
3598	6.58e-05
3610	7.99e-05
3622	1.88e-05
3634	1.41e-05
3646	7.99e-05
3658	4.7e-05
3670	9.4e-05
3682	6.58e-05
3694	7.99e-05
3706	0.0001034
3718	0.0001363
3730	9.87e-05
3742	6.11e-05
3754	0.0001034
3766	0.0001034
3778	9.87e-05
3790	0.0001457
3802	0.0001269
3814	9.4e-05
3826	0.0001786
3838	0.0002585
