Infrared Spectrum: 1-AMINO-8-NAPHTHOL-3,6-DISULFONIC ACID
Formula: C10 H9 N O7 S2
CAS: 90-20-0
State: SOLID (0.50% IN KBr PELLET)
Class: COBLENTZ
Instrument: Not specified, most likely a prism, grating, or hybrid spectrometer.
Sampling: TRANSMISSION
Path length: 0.0355 CM THICK
Resolution: 4
Origin: ANDERSON PHYSICAL LABORATORY
1/CM	TRANSMITTANCE
671.135	0.388
679.551	0.1811
687.968	0.2099
696.384	0.4379
704.801	0.4441
713.217	0.543
721.634	0.65
730.05	0.716
738.467	0.767
746.883	0.804
755.3	0.827
763.716	0.851
772.133	0.843
780.549	0.8041
788.966	0.8686
797.382	0.89
805.798	0.888
814.215	0.888
822.631	0.884
831.048	0.872
839.464	0.863
847.881	0.852
856.297	0.84
864.714	0.794
873.13	0.5941
881.547	0.617
889.963	0.635
898.38	0.582
906.796	0.546
915.212	0.576
923.629	0.597
932.045	0.7079
940.462	0.77
948.878	0.749
957.295	0.747
965.711	0.75
974.128	0.752
982.544	0.74
990.961	0.725
999.377	0.702
1007.79	0.678
1016.21	0.626
1024.63	0.5491
1033.04	0.454
1041.46	0.2911
1049.88	0.048
1058.29	0.115
1066.71	0.3489
1075.13	0.466
1083.54	0.355
1091.96	0.414
1100.37	0.312
1108.79	0.4619
1117.21	0.472
1125.62	0.394
1134.04	0.294
1142.46	0.172
1150.87	0.057
1159.29	0.105
1167.71	0.133
1176.12	0.12
1184.54	0.127
1192.96	0.126
1201.37	0.136
1209.79	0.153
1218.21	0.15
1226.62	0.121
1235.04	0.136
1243.45	0.181
1251.87	0.238
1260.29	0.229
1268.7	0.229
1277.12	0.31
1285.54	0.3941
1293.95	0.5329
1302.37	0.635
1310.79	0.623
1319.2	0.5
1327.62	0.424
1336.04	0.642
1344.45	0.75
1352.87	0.764
1361.29	0.7161
1369.7	0.5841
1378.12	0.3272
1386.53	0.2519
1394.95	0.433
1403.37	0.608
1411.78	0.725
1420.2	0.773
1428.62	0.75
1437.03	0.702
1445.45	0.828
1453.87	0.858
1462.28	0.852
1470.7	0.813
1479.12	0.807
1487.53	0.782
1495.95	0.723
1504.37	0.524
1512.78	0.421
1521.2	0.5629
1529.61	0.669
1538.03	0.674
1546.45	0.683
1554.86	0.761
1563.28	0.783
1571.7	0.789
1580.11	0.771
1588.53	0.671
1596.95	0.617
1605.36	0.4801
1613.78	0.463
1622.2	0.469
1630.61	0.5929
1639.03	0.576
1647.44	0.582
1655.86	0.603
1664.28	0.65
1672.69	0.666
1681.11	0.692
1689.53	0.732
1697.94	0.801
1706.36	0.833
1714.78	0.857
1723.19	0.855
1731.61	0.867
1740.03	0.855
1748.44	0.864
1756.86	0.867
1765.28	0.866
1773.69	0.872
1782.11	0.876
1790.52	0.876
1798.94	0.876
1807.36	0.888
1815.77	0.893
1824.19	0.891
1832.61	0.897
1841.02	0.893
1849.44	0.887
1857.86	0.885
1866.27	0.89
1874.69	0.893
1883.11	0.896
1891.52	0.894
1899.94	0.894
1908.36	0.893
1916.77	0.89
1925.19	0.885
1933.6	0.884
1942.02	0.882
1950.44	0.876
1958.85	0.87
1967.27	0.863
1975.69	0.855
1984.1	0.848
1992.52	0.84
2000.94	0.8307
2009.35	0.828
2017.77	0.827
2026.19	0.828
2034.6	0.8367
2043.02	0.8465
2051.44	0.854
2059.85	0.858
2068.27	0.86
2076.68	0.86
2085.1	0.86
2093.52	0.86
2101.93	0.858
2110.35	0.8575
2118.77	0.8542
2127.18	0.854
2135.6	0.852
2144.02	0.852
2152.43	0.852
2160.85	0.851
2169.27	0.851
2177.68	0.851
2186.1	0.851
2194.52	0.852
2202.93	0.849
2211.35	0.8464
2219.76	0.843
2228.18	0.843
2236.6	0.843
2245.01	0.843
2253.43	0.843
2261.85	0.843
2270.26	0.8414
2278.68	0.84
2287.1	0.8351
2295.51	0.831
2303.93	0.8261
2312.35	0.8194
2320.76	0.8164
2329.18	0.8058
2337.6	0.7922
2346.01	0.783
2354.43	0.782
2362.84	0.78
2371.26	0.78
2379.68	0.782
2388.09	0.7828
2396.51	0.7831
2404.93	0.7797
2413.34	0.7743
2421.76	0.7651
2430.18	0.7485
2438.59	0.7394
2447.01	0.7353
2455.43	0.7219
2463.84	0.7037
2472.26	0.6974
2480.67	0.6909
2489.09	0.6807
2497.51	0.6652
2505.92	0.6467
2514.34	0.6287
2522.76	0.6117
2531.17	0.5987
2539.59	0.5927
2548.01	0.5797
2556.42	0.5672
2564.84	0.5482
2573.26	0.5182
2581.67	0.4975
2590.09	0.471
2598.51	0.439
2606.92	0.4009
2615.34	0.3922
2623.75	0.391
2632.17	0.393
2640.59	0.3951
2649	0.4
2657.42	0.4084
2665.84	0.4144
2674.25	0.4234
2682.67	0.424
2691.09	0.42
2699.5	0.417
2707.92	0.4174
2716.34	0.4241
2724.75	0.4329
2733.17	0.4314
2741.59	0.4156
2750	0.4024
2758.42	0.402
2766.83	0.4051
2775.25	0.4142
2783.67	0.4309
2792.08	0.4378
2800.5	0.4322
2808.92	0.4125
2817.33	0.3761
2825.75	0.3665
2834.17	0.3549
2842.58	0.3516
2851	0.3381
2859.42	0.3216
2867.83	0.3109
2876.25	0.2976
2884.67	0.2835
2893.08	0.28
2901.5	0.2787
2909.91	0.277
2918.33	0.2796
2926.75	0.2844
2935.16	0.2946
2943.58	0.2988
2952	0.3023
2960.41	0.3115
2968.83	0.3227
2977.25	0.3331
2985.66	0.3433
2994.08	0.3546
3002.5	0.3675
3010.91	0.3724
3019.33	0.3757
3027.75	0.3778
3036.16	0.378
3044.58	0.378
3052.99	0.379
3061.41	0.379
3069.83	0.381
3078.24	0.382
3086.66	0.384
3095.08	0.3849
3103.49	0.3932
3111.91	0.3991
3120.33	0.4118
3128.74	0.4237
3137.16	0.4369
3145.58	0.4429
3153.99	0.4464
3162.41	0.4614
3170.83	0.4913
3179.24	0.5064
3187.66	0.5141
3196.07	0.5189
3204.49	0.5224
3212.91	0.5263
3221.32	0.5351
3229.74	0.5446
3238.16	0.5512
3246.57	0.5529
3254.99	0.554
3263.41	0.5511
3271.82	0.5444
3280.24	0.5356
3288.66	0.5265
3297.07	0.5191
3305.49	0.5062
3313.91	0.4996
3322.32	0.4917
3330.74	0.4754
3339.15	0.4499
3347.57	0.4267
3355.99	0.4048
3364.4	0.3903
3372.82	0.3651
3381.24	0.3468
3389.65	0.3286
3398.07	0.3073
3406.49	0.2791
3414.9	0.2726
3423.32	0.2648
3431.74	0.2581
3440.15	0.253
3448.57	0.252
3456.98	0.2505
3465.4	0.247
3473.82	0.24
3482.23	0.2375
3490.65	0.2303
3499.07	0.225
3507.48	0.223
3515.9	0.223
3524.32	0.223
3532.73	0.225
3541.15	0.2288
3549.57	0.233
3557.98	0.2347
3566.4	0.244
3574.82	0.253
3583.23	0.268
3591.65	0.2883
3600.06	0.309
3608.48	0.3309
3616.9	0.3556
3625.31	0.3769
3633.73	0.4051
3642.15	0.4204
3650.56	0.4427
3658.98	0.4525
3667.4	0.4631
3675.81	0.486
3684.23	0.5235
3692.65	0.5658
3701.06	0.6124
3709.48	0.6518
3717.9	0.6703
3726.31	0.695
3734.73	0.7173
3743.14	0.7304
3751.56	0.7386
3759.98	0.745
3768.39	0.7561
3776.81	0.7571
3785.23	0.753
3793.64	0.7574
3802.06	0.7651
3810.48	0.768
3818.89	0.767
3827.31	0.7626
3835.73	0.7589
3844.14	0.7583
3852.56	0.7606
3860.98	0.7648
3869.39	0.768
3877.81	0.768
3886.22	0.7674
3894.64	0.7654
3903.06	0.7649
3911.47	0.764
3919.89	0.7614
3928.31	0.759
3936.72	0.759
3945.14	0.7587
3953.56	0.7586
3961.97	0.761
3970.39	0.758
3978.81	0.756
3987.22	0.756
3995.64	0.756
