Infrared Spectrum: N-Phenyl-1-Naphthylamine
Formula: C 16 H 13 N
CAS: 90-30-2
State: gas
Origin: EPA-IR VAPOR PHASE LIBRARY
1/CM	ABSORBANCE
549.8	0.010868
559.445	0.013078
569.09	0.012978
578.734	0.015088
588.379	0.012038
598.024	0.007988
607.669	0.007528
617.313	0.009518
626.958	0.009438
636.603	0.007788
646.248	0.007618
655.893	0.008838
665.537	0.011748
675.182	0.015878
684.827	0.031668
694.472	0.037718
704.116	0.023788
713.761	0.020898
723.406	0.029038
733.051	0.047738
742.695	0.060958
752.34	0.051648
761.985	0.076398
771.63	0.124508
781.275	0.081418
790.919	0.058078
800.564	0.029828
810.209	0.013578
819.854	0.008318
829.498	0.007158
839.143	0.007058
848.788	0.007648
858.433	0.007948
868.078	0.007448
877.722	0.008098
887.367	0.010228
897.012	0.006578
906.657	0.004108
916.301	0.003688
925.946	0.003568
935.591	0.003848
945.236	0.004128
954.88	0.004578
964.525	0.004778
974.17	0.004048
983.815	0.004218
993.46	0.005458
1003.1	0.008378
1012.75	0.017838
1022.39	0.019768
1032.04	0.012058
1041.68	0.007538
1051.33	0.008608
1060.97	0.006708
1070.62	0.009528
1080.26	0.013468
1089.91	0.016008
1099.55	0.008148
1109.2	0.004918
1118.84	0.003088
1128.49	0.003248
1138.13	0.003848
1147.78	0.005738
1157.42	0.009778
1167.07	0.010038
1176.71	0.010708
1186.36	0.007848
1196	0.006798
1205.64	0.008768
1215.29	0.013738
1224.93	0.018868
1234.58	0.021928
1244.22	0.039908
1253.87	0.048428
1263.51	0.040258
1273.16	0.053218
1282.8	0.071138
1292.45	0.103128
1302.09	0.102418
1311.74	0.062268
1321.38	0.033568
1331.03	0.024878
1340.67	0.026058
1350.32	0.021128
1359.96	0.017758
1369.61	0.019388
1379.25	0.025378
1388.9	0.057958
1398.54	0.111708
1408.18	0.073218
1417.83	0.053888
1427.47	0.032758
1437.12	0.026268
1446.76	0.038028
1456.41	0.044988
1466.05	0.051268
1475.7	0.053428
1485.34	0.086268
1494.99	0.213518
1504.63	0.161828
1514.28	0.087248
1523.92	0.064848
1533.57	0.044388
1543.21	0.031548
1552.86	0.030458
1562.5	0.046658
1572.15	0.099728
1581.79	0.124378
1591.44	0.125048
1601.08	0.133838
1610.73	0.071808
1620.37	0.030548
1630.01	0.019038
1639.66	0.012728
1649.3	0.009568
1658.95	0.008568
1668.59	0.008168
1678.24	0.008388
1687.88	0.008428
1697.53	0.007368
1707.17	0.006858
1716.82	0.006888
1726.46	0.006518
1736.11	0.005838
1745.75	0.005628
1755.4	0.006258
1765.04	0.006838
1774.69	0.006428
1784.33	0.005958
1793.98	0.005628
1803.62	0.005578
1813.27	0.005838
1822.91	0.006448
1832.55	0.006638
1842.2	0.006048
1851.84	0.005088
1861.49	0.004118
1871.13	0.003558
1880.78	0.003608
1890.42	0.004358
1900.07	0.006468
1909.71	0.009198
1919.36	0.009568
1929	0.007928
1938.65	0.007018
1948.29	0.004518
1957.94	0.002828
1967.58	0.002288
1977.23	0.002078
1986.87	0.001958
1996.52	0.001978
2006.16	0.002008
2015.81	0.001878
2025.45	0.001858
2035.1	0.001768
2044.74	0.001728
2054.38	0.001728
2064.03	0.001698
2073.67	0.001598
2083.32	0.001608
2092.96	0.001788
2102.61	0.001738
2112.25	0.001768
2121.9	0.001708
2131.54	0.001608
2141.19	0.001298
2150.83	0.001248
2160.48	0.001248
2170.12	0.001308
2179.77	0.001268
2189.41	0.0010162
2199.06	0.0009402
2208.7	0.0009606
2218.35	0.0009833
2227.99	0.0009416
2237.64	0.0009792
2247.28	0.0009876
2256.92	0.0010632
2266.57	0.0010721
2276.21	0.001378
2285.86	0.001618
2295.5	0.001458
2305.15	0.001498
2314.79	0.001828
2324.44	0.001788
2334.08	0.001888
2343.73	0.001798
2353.37	0.001548
2363.02	0.001448
2372.66	0.001288
2382.31	0.001348
2391.95	0.001388
2401.6	0.001558
2411.24	0.001678
2420.89	0.001638
2430.53	0.001388
2440.18	0.001378
2449.82	0.001308
2459.47	0.001338
2469.11	0.001468
2478.75	0.001738
2488.4	0.001968
2498.04	0.002138
2507.69	0.002498
2517.33	0.002788
2526.98	0.002698
2536.62	0.002328
2546.27	0.002058
2555.91	0.001738
2565.56	0.001608
2575.2	0.001498
2584.85	0.001408
2594.49	0.001358
2604.14	0.001318
2613.78	0.001328
2623.43	0.001358
2633.07	0.001368
2642.72	0.001278
2652.36	0.001148
2662.01	0.0010773
2671.65	0.0008565
2681.29	0.0007936
2690.94	0.0008112
2700.58	0.0008788
2710.23	0.0008972
2719.87	0.0008997
2729.52	0.0008302
2739.16	0.000805
2748.81	0.0008952
2758.45	0.0009757
2768.1	0.000811
2777.74	0.0009121
2787.39	0.0008828
2797.03	0.0010211
2806.68	0.0009979
2816.32	0.0009791
2825.97	0.0009394
2835.61	0.0010924
2845.26	0.0010989
2854.9	0.001298
2864.55	0.001228
2874.19	0.001358
2883.84	0.001348
2893.48	0.001428
2903.12	0.001508
2912.77	0.001538
2922.41	0.001718
2932.06	0.001988
2941.7	0.002558
2951.35	0.003018
2960.99	0.003058
2970.64	0.003048
2980.28	0.003638
2989.93	0.005178
2999.57	0.009108
3009.22	0.016458
3018.86	0.024018
3028.51	0.029338
3038.15	0.038578
3047.8	0.060188
3057.44	0.092818
3067.09	0.093058
3076.73	0.063048
3086.38	0.045808
3096.02	0.030728
3105.67	0.017058
3115.31	0.007878
3124.95	0.003658
3134.6	0.002038
3144.24	0.001538
3153.89	0.001278
3163.53	0.001288
3173.18	0.0010976
3182.82	0.0009114
3192.47	0.000881
3202.11	0.0008183
3211.76	0.000757
3221.4	0.0007616
3231.05	0.0004657
3240.69	0.0004064
3250.34	0.0002641
3259.98	0.00014631
3269.63	0.00015492
3279.27	7e-05
3288.92	0.000130228
3298.56	0.00014105
3308.21	0.00020567
3317.85	0.000231
3327.49	0.0002623
3337.14	0.00014792
3346.78	0.0003599
3356.43	0.0002974
3366.07	0.000491
3375.72	0.000678
3385.36	0.001128
3395.01	0.001838
3404.65	0.003608
3414.3	0.006278
3423.94	0.009148
3433.59	0.009538
3443.23	0.007258
3452.88	0.004398
3462.52	0.002978
3472.17	0.002078
3481.81	0.001518
3491.46	0.0009979
3501.1	0.0004338
3510.75	0.0005738
3520.39	0.0002817
3530.04	0.00018635
3539.68	0.000234
3549.32	0.0002583
3558.97	0.0002987
3568.61	0.0003438
3578.26	0.0003112
3587.9	0.0002823
3597.55	0.0004059
3607.19	0.0002652
3616.84	0.0003114
3626.48	0.0005421
3636.13	0.0004893
3645.77	0.0004462
3655.42	0.0005609
3665.06	0.0005256
3674.71	0.0005032
3684.35	0.0003883
3694	0.0003582
3703.64	0.0003937
3713.29	0.0004107
3722.93	0.0003499
3732.58	0.0002774
3742.22	0.0002625
3751.86	0.0002797
3761.51	0.0003244
3771.15	0.0004163
3780.8	0.0002627
3790.44	0.0005151
3800.09	0.0004632
3809.73	0.000579
3819.38	0.0005761
3829.02	0.0005001
3838.67	0.0008151
3848.31	0.0009712
3857.96	0.0007015
3867.6	0.0007615
3877.25	0.0005622
3886.89	0.0005405
3896.54	0.0006781
3906.18	0.0006884
3915.83	0.0005581
3925.47	0.0006412
3935.12	0.0008406
3944.76	0.0007042
3954.41	0.0007543
3964.05	0.0004657
3973.69	0.0003499
3983.34	0.0003289
3992.98	0.00019835
