Infrared Spectrum: 4-METHYL-7-HYDROXY-COUMARIN
Formula: C10 H8 O3
CAS: 90-33-5
State: SOLID (0.3% IN KBr PELLET)
Class: COBLENTZ
Instrument: Not specified, most likely a prism, grating, or hybrid spectrometer.
Sampling: TRANSMISSION
Path length: 0.0355 CM
Resolution: 4
Origin: ANDERSON PHYSICAL LABORATORY
1/CM	TRANSMITTANCE
668.645	0.716
677.077	0.711
685.509	0.705
693.942	0.702
702.374	0.699
710.806	0.701
719.238	0.693
727.671	0.681
736.103	0.647
744.535	0.605
752.967	0.588
761.4	0.63
769.832	0.644
778.264	0.686
786.696	0.713
795.129	0.72
803.561	0.711
811.993	0.684
820.425	0.72
828.858	0.704
837.29	0.665
845.722	0.6001
854.154	0.503
862.587	0.648
871.019	0.621
879.451	0.696
887.883	0.711
896.316	0.716
904.748	0.71
913.18	0.74
921.612	0.741
930.045	0.738
938.477	0.735
946.909	0.729
955.341	0.72
963.773	0.711
972.206	0.701
980.638	0.669
989.07	0.62
997.502	0.713
1005.93	0.716
1014.37	0.704
1022.8	0.681
1031.23	0.699
1039.66	0.695
1048.1	0.69
1056.53	0.663
1064.96	0.632
1073.39	0.561
1081.82	0.621
1090.26	0.722
1098.69	0.711
1107.12	0.687
1115.55	0.674
1123.99	0.645
1132.42	0.6
1140.85	0.554
1149.28	0.644
1157.72	0.609
1166.15	0.552
1174.58	0.654
1183.01	0.678
1191.44	0.663
1199.88	0.626
1208.31	0.585
1216.74	0.528
1225.17	0.501
1233.61	0.518
1242.04	0.459
1250.47	0.459
1258.9	0.546
1267.33	0.599
1275.77	0.4842
1284.2	0.411
1292.63	0.6589
1301.06	0.716
1309.5	0.704
1317.93	0.683
1326.36	0.645
1334.79	0.599
1343.22	0.57
1351.66	0.602
1360.09	0.593
1368.52	0.527
1376.95	0.432
1385.39	0.442
1393.82	0.384
1402.25	0.369
1410.68	0.606
1419.11	0.668
1427.55	0.665
1435.98	0.636
1444.41	0.587
1452.84	0.552
1461.28	0.524
1469.71	0.581
1478.14	0.597
1486.57	0.599
1495	0.599
1503.44	0.602
1511.87	0.579
1520.3	0.572
1528.73	0.566
1537.17	0.551
1545.6	0.519
1554.03	0.489
1562.46	0.438
1570.89	0.394
1579.33	0.337
1587.76	0.295
1596.19	0.246
1604.62	0.232
1613.06	0.276
1621.49	0.366
1629.92	0.436
1638.35	0.503
1646.79	0.503
1655.22	0.447
1663.65	0.421
1672.08	0.313
1680.51	0.223
1688.95	0.2799
1697.38	0.354
1705.81	0.478
1714.24	0.519
1722.68	0.605
1731.11	0.656
1739.54	0.717
1747.97	0.735
1756.4	0.759
1764.84	0.779
1773.27	0.785
1781.7	0.789
1790.13	0.783
1798.57	0.782
1807	0.797
1815.43	0.807
1823.86	0.812
1832.29	0.815
1840.73	0.816
1849.16	0.816
1857.59	0.812
1866.02	0.806
1874.46	0.809
1882.89	0.803
1891.32	0.8
1899.75	0.8
1908.18	0.8
1916.62	0.8
1925.05	0.8
1933.48	0.8
1941.91	0.801
1950.35	0.801
1958.78	0.8
1967.21	0.791
1975.64	0.794
1984.07	0.797
1992.51	0.8
2000.94	0.809
2009.37	0.809
2017.8	0.8075
2026.24	0.807
2034.67	0.803
2043.1	0.801
2051.53	0.801
2059.96	0.8
2068.4	0.8003
2076.83	0.801
2085.26	0.801
2093.69	0.801
2102.13	0.801
2110.56	0.8
2118.99	0.8
2127.42	0.7979
2135.86	0.7963
2144.29	0.7944
2152.72	0.7923
2161.15	0.7908
2169.58	0.7886
2178.02	0.7868
2186.45	0.7851
2194.88	0.7829
2203.31	0.7779
2211.75	0.7734
2220.18	0.771
2228.61	0.7732
2237.04	0.774
2245.47	0.774
2253.91	0.7712
2262.34	0.7666
2270.77	0.764
2279.2	0.762
2287.64	0.762
2296.07	0.7588
2304.5	0.7555
2312.93	0.7515
2321.36	0.749
2329.8	0.7468
2338.23	0.7465
2346.66	0.7485
2355.09	0.75
2363.53	0.7515
2371.96	0.749
2380.39	0.7475
2388.82	0.744
2397.25	0.7365
2405.69	0.727
2414.12	0.7205
2422.55	0.719
2430.98	0.719
2439.42	0.717
2447.85	0.7144
2456.28	0.711
2464.71	0.7107
2473.14	0.7074
2481.58	0.7054
2490.01	0.704
2498.44	0.704
2506.87	0.704
2515.31	0.704
2523.74	0.704
2532.17	0.704
2540.6	0.704
2549.04	0.702
2557.47	0.6989
2565.9	0.696
2574.33	0.695
2582.76	0.692
2591.2	0.6896
2599.63	0.6866
2608.06	0.686
2616.49	0.686
2624.93	0.6805
2633.36	0.6762
2641.79	0.6726
2650.22	0.671
2658.65	0.6655
2667.09	0.6611
2675.52	0.6576
2683.95	0.656
2692.38	0.6538
2700.82	0.6521
2709.25	0.651
2717.68	0.65
2726.11	0.65
2734.54	0.649
2742.98	0.647
2751.41	0.641
2759.84	0.6372
2768.27	0.6325
2776.71	0.6305
2785.14	0.63
2793.57	0.6297
2802	0.627
2810.43	0.6244
2818.87	0.6229
2827.3	0.6171
2835.73	0.6129
2844.16	0.6082
2852.6	0.6049
2861.03	0.6014
2869.46	0.5978
2877.89	0.5919
2886.32	0.5898
2894.76	0.5863
2903.19	0.581
2911.62	0.5726
2920.05	0.5688
2928.49	0.5623
2936.92	0.5574
2945.35	0.5523
2953.78	0.5459
2962.21	0.5409
2970.65	0.5344
2979.08	0.5282
2987.51	0.5215
2995.94	0.5186
3004.38	0.514
3012.81	0.5092
3021.24	0.5068
3029.67	0.5036
3038.11	0.4983
3046.54	0.4903
3054.97	0.4814
3063.4	0.4639
3071.83	0.4486
3080.27	0.4421
3088.7	0.4418
3097.13	0.4336
3105.56	0.4268
3114	0.424
3122.43	0.423
3130.86	0.423
3139.29	0.424
3147.72	0.427
3156.16	0.4305
3164.59	0.4325
3173.02	0.445
3181.45	0.4692
3189.89	0.4824
3198.32	0.4955
3206.75	0.5008
3215.18	0.5044
3223.61	0.5153
3232.05	0.5227
3240.48	0.5321
3248.91	0.5452
3257.34	0.5513
3265.78	0.5562
3274.21	0.5625
3282.64	0.5708
3291.07	0.5854
3299.5	0.5952
3307.94	0.5987
3316.37	0.6036
3324.8	0.6114
3333.23	0.6146
3341.67	0.617
3350.1	0.618
3358.53	0.6188
3366.96	0.6207
3375.39	0.6258
3383.83	0.6273
3392.26	0.629
3400.69	0.629
3409.12	0.6271
3417.56	0.6268
3425.99	0.624
3434.42	0.6254
3442.85	0.626
3451.28	0.627
3459.72	0.629
3468.15	0.6297
3476.58	0.63
3485.01	0.632
3493.45	0.6345
3501.88	0.636
3510.31	0.639
3518.74	0.6395
3527.18	0.641
3535.61	0.6435
3544.04	0.645
3552.47	0.6473
3560.9	0.65
3569.34	0.651
3577.77	0.651
3586.2	0.653
3594.63	0.6557
3603.07	0.6586
3611.5	0.659
3619.93	0.659
3628.36	0.659
3636.79	0.659
3645.23	0.659
3653.66	0.659
3662.09	0.659
3670.52	0.659
3678.96	0.66
3687.39	0.66
3695.82	0.66
3704.25	0.66
3712.68	0.66
3721.12	0.66
3729.55	0.66
3737.98	0.659
3746.41	0.657
3754.85	0.6548
3763.28	0.6503
3771.71	0.648
3780.14	0.6466
3788.57	0.645
3797.01	0.645
3805.44	0.645
3813.87	0.645
3822.3	0.645
3830.74	0.6443
3839.17	0.6421
3847.6	0.641
3856.03	0.637
3864.46	0.6335
3872.9	0.632
3881.33	0.63
3889.76	0.63
3898.19	0.63
3906.63	0.632
3915.06	0.633
3923.49	0.633
3931.92	0.632
3940.35	0.632
3948.79	0.63
3957.22	0.63
3965.65	0.63
3974.08	0.63
3982.52	0.632
