Infrared Spectrum: Xanthone
Formula: C 13 H 8 O 2
CAS: 90-47-1
State: gas
Instrument: HP-GC/MS/IRD
Origin: NIST Mass Spectrometry Data Center
1/CM	ABSORBANCE
550	8.74e-05
562	1.52e-05
574	0.000228
586	0.0004446
598	0.000209
610	6.46e-05
622	0.001881
634	0.0032034
646	0.0009652
658	0.002641
670	0.0040812
682	0.0010108
694	0.0002508
706	0.0004788
718	0.000589
730	0.0006916
742	0.005624
754	0.018943
766	0.0086526
778	0.0015656
790	0.0013262
802	0.0011476
814	0.0004408
826	0.0003078
838	0.0006536
850	0.0004864
862	0.0005548
874	0.0020102
886	0.0018544
898	0.0006612
910	0.000988
922	0.0020216
934	0.0069122
946	0.0012198
958	0.0006042
970	0.00019
982	8.74e-05
994	0.0001938
1006	0.000133
1018	0.0004598
1030	0.001292
1042	0.0001292
1054	0.0001482
1066	0.000266
1078	0.0005168
1090	0.002527
1102	0.0041078
1114	0.0020368
1126	0.0016758
1138	0.004636
1150	0.0051794
1162	0.001083
1174	0.0011932
1186	0.001216
1198	0.0016796
1210	0.0068438
1222	0.0081396
1234	0.0091694
1246	0.0050198
1258	0.002926
1270	0.0018582
1282	0.0019228
1294	0.0015238
1306	0.0042294
1318	0.0104576
1330	0.0259388
1342	0.0313006
1354	0.0034998
1366	0.0014934
1378	0.0019114
1390	0.002147
1402	0.0010146
1414	0.0009234
1426	0.0019
1438	0.0038874
1450	0.0190038
1462	0.038
1474	0.029602
1486	0.0143678
1498	0.003173
1510	0.0015504
1522	0.001197
1534	0.0015428
1546	0.002033
1558	0.002774
1570	0.004389
1582	0.0046626
1594	0.007904
1606	0.0232332
1618	0.0175218
1630	0.0065284
1642	0.0028196
1654	0.0035226
1666	0.0072314
1678	0.0201286
1690	0.0343064
1702	0.0117192
1714	0.0022762
1726	0.0012046
1738	0.0007258
1750	0.0007486
1762	0.000589
1774	0.0004826
1786	0.0002888
1798	0.0003116
1810	0.0006422
1822	0.0006536
1834	0.000608
1846	0.0005662
1858	0.000399
1870	0.0002242
1882	0.0001558
1894	0.0001634
1906	0.000361
1918	0.0004256
1930	0.000722
1942	0.0005548
1954	0.0005624
1966	0.0004028
1978	0.0001976
1990	0.0002736
2002	0.0001482
2014	8.36e-05
2026	0.0001444
2038	0.000171
2050	0.0001748
2062	0.000285
2074	0.0004826
2086	0.000323
2098	0.00019
2110	0.000114
2122	7.6e-05
2134	6.46e-05
2146	8.74e-05
2158	0.0001406
2170	0.000152
2182	0.0001178
2194	6.46e-05
2206	2.66e-05
2218	2.28e-05
2230	3.04e-05
2242	7.6e-05
2254	0.0001064
2266	0.000133
2278	0.000114
2290	0.0001482
2302	0.0001634
2314	0.0001596
2326	0.000171
2338	0.0001976
2350	0.0002622
2362	0.000228
2374	0.0001406
2386	0.000114
2398	7.6e-05
2410	0.0001444
2422	0.000247
2434	0.000361
2446	0.0003382
2458	0.0003496
2470	0.0002736
2482	0.0001824
2494	0.0001596
2506	0.0001216
2518	6.46e-05
2530	6.84e-05
2542	0.000133
2554	0.0002052
2566	0.0001254
2578	9.12e-05
2590	6.84e-05
2602	9.5e-05
2614	0.0001064
2626	9.5e-05
2638	8.36e-05
2650	8.36e-05
2662	5.7e-05
2674	0
2686	3.42e-05
2698	8.74e-05
2710	8.74e-05
2722	1.52e-05
2734	3.8e-06
2746	3.42e-05
2758	7.22e-05
2770	0.0001178
2782	0.0001672
2794	0.000171
2806	0.000152
2818	5.7e-05
2830	0.000133
2842	4.56e-05
2854	3.42e-05
2866	6.46e-05
2878	9.88e-05
2890	0.0001064
2902	0.0001026
2914	0.0001064
2926	9.88e-05
2938	0.0001596
2950	6.08e-05
2962	1.14e-05
2974	1.52e-05
2986	4.94e-05
2998	0.000171
3010	0.0003458
3022	0.0006992
3034	0.0011058
3046	0.0013414
3058	0.001501
3070	0.00304
3082	0.0053314
3094	0.0028766
3106	0.0008284
3118	0.0002204
3130	0.000152
3142	0.0001558
3154	0.0001976
3166	0.0002318
3178	9.88e-05
3190	0.0001216
3202	6.08e-05
3214	7.98e-05
3226	8.74e-05
3238	1.52e-05
3250	4.18e-05
3262	6.46e-05
3274	0.0001178
3286	6.46e-05
3298	0.0001064
3310	8.36e-05
3322	0.0001064
3334	0.0001824
3346	0.0003192
3358	0.0003762
3370	0.0003078
3382	0.0001976
3394	0.0001444
3406	8.36e-05
3418	5.32e-05
3430	4.94e-05
3442	5.32e-05
3454	9.5e-05
3466	5.32e-05
3478	7.22e-05
3490	6.46e-05
3502	7.6e-06
3514	0.000114
3526	4.18e-05
3538	8.74e-05
3550	9.88e-05
3562	9.5e-05
3574	6.84e-05
3586	6.46e-05
3598	0.0001026
3610	0.0001026
3622	2.66e-05
3634	5.7e-05
3646	9.88e-05
3658	0.0001254
3670	9.88e-05
3682	0.000133
3694	9.5e-05
3706	7.22e-05
3718	8.36e-05
3730	7.98e-05
3742	0.0001064
3754	0.0001558
3766	0.0001216
3778	0.000133
3790	7.22e-05
3802	0.000114
3814	4.94e-05
3826	7.6e-05
3838	3.8e-05
