Infrared Spectrum: Anthrone
Formula: C 14 H 10 O
CAS: 90-44-8
State: gas
Instrument: HP-GC/MS/IRD
Origin: NIST Mass Spectrometry Data Center
1/CM	ABSORBANCE
550	0.0003441
562	0.0002405
574	0.0007141
586	0.0005624
598	7.77e-05
610	0.0001184
622	0.0008473
634	0.004625
646	0.0023421
658	0.0010064
670	0.0012025
682	0.0020535
694	0.0037555
706	0.0083805
718	0.0209827
730	0.0112887
742	0.0020128
754	0.0006068
766	0.0003811
778	0.0005069
790	0.0012728
802	0.0022718
814	0.0021534
826	0.0009546
838	0.0009805
850	0.0008769
862	0.0006734
874	0.0003996
886	0.0003441
898	0.0005365
910	0.0016243
922	0.0077848
934	0.0119547
946	0.0029822
958	0.0015947
970	0.0008436
982	0.0002664
994	0.0001924
1006	0.0001036
1018	7.77e-05
1030	0.0006179
1042	0.0012025
1054	0.0005291
1066	0.0007659
1078	0.0018944
1090	0.0025271
1102	0.0015059
1114	0.0008917
1126	0.0007363
1138	0.0011581
1150	0.0038628
1162	0.0033818
1174	0.0018648
1186	0.0011174
1198	0.0008732
1210	0.0009768
1222	0.0010841
1234	0.0014023
1246	0.001998
1258	0.0032116
1270	0.0039516
1282	0.0077219
1294	0.0216561
1306	0.0359529
1318	0.0276908
1330	0.0048396
1342	0.0021978
1354	0.0016613
1366	0.0014245
1378	0.0011655
1390	0.00111
1402	0.0012765
1414	0.0021386
1426	0.001813
1438	0.0017427
1450	0.0034817
1462	0.008769
1474	0.0050061
1486	0.002849
1498	0.0012025
1510	0.0011285
1522	0.0010878
1534	0.0008695
1546	0.0009472
1558	0.0013949
1570	0.0016465
1582	0.0029415
1594	0.0077034
1606	0.0129352
1618	0.0062604
1630	0.0030858
1642	0.0026344
1654	0.0035335
1666	0.0077182
1678	0.0302327
1690	0.0318163
1702	0.0059829
1714	0.0027195
1726	0.0021386
1738	0.0013283
1750	0.0008695
1762	0.0006882
1774	0.0006142
1786	0.0005439
1798	0.0006216
1810	0.0008954
1822	0.0010545
1834	0.0008584
1846	0.0008584
1858	0.0006031
1870	0.0004514
1882	0.0003552
1894	0.0003848
1906	0.0004477
1918	0.0007548
1930	0.0008066
1942	0.0009546
1954	0.0008103
1966	0.0008029
1978	0.0003441
1990	0.0002923
2002	0.0002775
2014	0.0002738
2026	0.0002035
2038	0.000185
2050	0.0001591
2062	0.0001776
2074	0.0001665
2086	0.0001702
2098	0.000148
2110	0.0001776
2122	0.0001739
2134	0.0002109
2146	0.0001776
2158	0.0001665
2170	0.0001406
2182	0.0001443
2194	0.0001406
2206	0.0001554
2218	0.0001332
2230	0.0001813
2242	0.0002035
2254	0.0002294
2266	0.0001924
2278	0.0001628
2290	0.0001961
2302	0.0003182
2314	0.0004329
2326	0.0003811
2338	0.0003663
2350	0.0002849
2362	0.0004218
2374	0.0003071
2386	0.0001739
2398	0.0001184
2410	0.0001702
2422	0.0001628
2434	0.0001517
2446	0.0001147
2458	0.0001591
2470	0.0001554
2482	0.0001036
2494	6.29e-05
2506	5.92e-05
2518	1.85e-05
2530	2.96e-05
2542	1.11e-05
2554	3.7e-05
2566	2.22e-05
2578	2.96e-05
2590	6.66e-05
2602	9.99e-05
2614	0.0001406
2626	8.88e-05
2638	5.18e-05
2650	0
2662	4.44e-05
2674	5.55e-05
2686	7.77e-05
2698	5.92e-05
2710	5.55e-05
2722	3.7e-05
2734	3.7e-05
2746	8.88e-05
2758	0.0001295
2770	0.0001813
2782	0.0001776
2794	0.0002627
2806	0.0003219
2818	0.0003589
2830	0.0002553
2842	0.0001887
2854	0.0003922
2866	0.0004995
2878	0.000703
2890	0.0015725
2902	0.002146
2914	0.0011507
2926	0.0006771
2938	0.0006364
2950	0.0005402
2962	0.0003922
2974	0.0003071
2986	0.0002849
2998	0.0003811
3010	0.000814
3022	0.0026825
3034	0.0046879
3046	0.0040996
3058	0.0054205
3070	0.0084582
3082	0.0086876
3094	0.002479
3106	0.0009657
3118	0.0004773
3130	0.000296
3142	0.0003182
3154	0.0003811
3166	0.0003552
3178	0.0001628
3190	0.000148
3202	0.0001221
3214	6.66e-05
3226	5.55e-05
3238	7.4e-05
3250	4.81e-05
3262	9.62e-05
3274	0.0001073
3286	8.51e-05
3298	6.66e-05
3310	0.0001073
3322	0.0001147
3334	0.0002479
3346	0.000518
3358	0.000518
3370	0.0002516
3382	9.25e-05
3394	4.44e-05
3406	3.7e-06
3418	4.81e-05
3430	6.66e-05
3442	9.62e-05
3454	5.18e-05
3466	6.29e-05
3478	6.29e-05
3490	4.07e-05
3502	0.0001406
3514	4.81e-05
3526	0.0001036
3538	7.4e-05
3550	0.0001221
3562	0.0001073
3574	3.33e-05
3586	0.0001665
3598	9.62e-05
3610	0.000185
3622	9.25e-05
3634	0.0001443
3646	0.0002405
3658	9.99e-05
3670	0.0001406
3682	2.22e-05
3694	0
3706	6.66e-05
3718	0.0001147
3730	0.0001443
3742	0.0002516
3754	0.0001554
3766	8.88e-05
3778	5.18e-05
3790	4.07e-05
3802	0.0001036
3814	4.07e-05
3826	2.22e-05
3838	0.0001554
