Infrared Spectrum: 3,5-Dibromosalicylaldehyde
Formula: C 7 H 4 Br 2 O 2
CAS: 90-59-5
State: gas
Origin: EPA-IR VAPOR PHASE LIBRARY
1/CM	ABSORBANCE
501.5	0.00891
513.074	0.003
524.648	0.00138
536.222	0.00221
547.796	0.0037
559.37	0.00437
570.944	0.00255
582.518	0.00253
594.092	0.00271
605.666	0.00228
617.24	0.00209
628.814	0.00237
640.388	0.00343
651.962	0.00508
663.536	0.0109
675.11	0.01761
686.684	0.03663
698.258	0.01943
709.832	0.03446
721.406	0.0229
732.98	0.0187
744.554	0.01224
756.128	0.00335
767.702	0.00181
779.276	0.00137
790.85	0.00115
802.423	0.0009189
813.997	0.00147
825.571	0.0032
837.145	0.00227
848.719	0.00153
860.293	0.00576
871.867	0.01046
883.441	0.00328
895.015	0.00357
906.589	0.00382
918.163	0.00779
929.737	0.00161
941.311	0.0005821
952.885	0.0004974
964.459	0.000528
976.033	0.0007503
987.607	0.000918
999.181	0.00102
1010.76	0.00112
1022.33	0.0008633
1033.9	0.0007989
1045.48	0.000892
1057.05	0.0008779
1068.63	0.00118
1080.2	0.00179
1091.77	0.0024
1103.35	0.00319
1114.92	0.00558
1126.49	0.00827
1138.07	0.0196
1149.64	0.03866
1161.22	0.03583
1172.79	0.01414
1184.36	0.01843
1195.94	0.03981
1207.51	0.02248
1219.09	0.01107
1230.66	0.00859
1242.23	0.00942
1253.81	0.01565
1265.38	0.02785
1276.96	0.06521
1288.53	0.03571
1300.1	0.00748
1311.68	0.01067
1323.25	0.01653
1334.83	0.01394
1346.4	0.01347
1357.97	0.01789
1369.55	0.0169
1381.12	0.00971
1392.7	0.01596
1404.27	0.0298
1415.84	0.04848
1427.42	0.0448
1438.99	0.04278
1450.57	0.04354
1462.14	0.01859
1473.71	0.00783
1485.29	0.0053
1496.86	0.00344
1508.44	0.00237
1520.01	0.00231
1531.58	0.00212
1543.16	0.00227
1554.73	0.00301
1566.31	0.00322
1577.88	0.00404
1589.45	0.00667
1601.03	0.00955
1612.6	0.00642
1624.18	0.00471
1635.75	0.00565
1647.32	0.0087
1658.9	0.01561
1670.47	0.06662
1682.05	0.12858
1693.62	0.02602
1705.19	0.01557
1716.77	0.01156
1728.34	0.00771
1739.92	0.00626
1751.49	0.00364
1763.06	0.0027
1774.64	0.00227
1786.21	0.00197
1797.79	0.000957
1809.36	0.0007085
1820.93	0.000879
1832.51	0.00169
1844.08	0.00129
1855.66	0.0005909
1867.23	0.0006128
1878.8	0.0006431
1890.38	0.0006259
1901.95	0.000436
1913.53	0.0002877
1925.1	0.000323
1936.67	0.0003579
1948.25	0.0003537
1959.82	0.0003526
1971.4	0.0003369
1982.97	0.000254
1994.54	0.0002727
2006.12	0.0001911
2017.69	0.0001281
2029.27	0.0001302
2040.84	0.0001524
2052.41	0.000203
2063.99	0.0003563
2075.56	0.0003892
2087.14	0.0003665
2098.71	0.0004796
2110.28	0.0005849
2121.86	0.0003526
2133.43	0.0002382
2145.01	0.0001364
2156.58	0.0001193
2168.15	0.0001116
2179.73	0.000163
2191.3	0.0002348
2202.88	0.000214
2214.45	9.182e-05
2226.02	0.0001172
2237.6	0.0001825
2249.17	0.0002028
2260.74	0.000256
2272.32	0.0002922
2283.89	0.0003008
2295.47	0.0002864
2307.04	0.0002867
2318.61	0.0002461
2330.19	0.0002457
2341.76	0.0002297
2353.34	0.0002362
2364.91	0.0002152
2376.48	0.0002486
2388.06	0.000312
2399.63	0.0003187
2411.21	0.0003716
2422.78	0.0004095
2434.35	0.0004073
2445.93	0.0003864
2457.5	0.0004372
2469.08	0.0005532
2480.65	0.000621
2492.22	0.0006019
2503.8	0.0005992
2515.37	0.0005515
2526.95	0.0006005
2538.52	0.0008379
2550.09	0.00124
2561.67	0.00132
2573.24	0.00111
2584.82	0.0009764
2596.39	0.0009477
2607.96	0.0009245
2619.54	0.0008397
2631.11	0.0008105
2642.69	0.0008798
2654.26	0.0009244
2665.83	0.00105
2677.41	0.00137
2688.98	0.00153
2700.56	0.00171
2712.13	0.00225
2723.7	0.00371
2735.28	0.00499
2746.85	0.00392
2758.43	0.00334
2770	0.00288
2781.57	0.00272
2793.15	0.003
2804.72	0.00357
2816.3	0.00455
2827.87	0.00841
2839.44	0.02225
2851.02	0.02072
2862.59	0.00602
2874.17	0.00425
2885.74	0.00273
2897.31	0.00202
2908.89	0.00161
2920.46	0.00148
2932.04	0.00155
2943.61	0.00175
2955.18	0.00186
2966.76	0.00194
2978.33	0.00204
2989.91	0.00215
3001.48	0.00232
3013.05	0.00225
3024.63	0.00213
3036.2	0.00228
3047.78	0.00258
3059.35	0.00281
3070.92	0.00318
3082.5	0.00398
3094.07	0.00439
3105.65	0.00492
3117.22	0.0053
3128.79	0.0058
3140.37	0.00617
3151.94	0.00659
3163.52	0.00718
3175.09	0.00772
3186.66	0.00813
3198.24	0.00804
3209.81	0.00759
3221.39	0.00698
3232.96	0.00651
3244.53	0.00622
3256.11	0.00646
3267.68	0.00678
3279.26	0.0069
3290.83	0.00668
3302.4	0.00614
3313.98	0.00559
3325.55	0.00528
3337.13	0.00565
3348.7	0.00607
3360.27	0.00489
3371.85	0.0042
3383.42	0.00379
3395	0.00355
3406.57	0.00329
3418.14	0.00297
3429.72	0.00269
3441.29	0.00247
3452.86	0.00226
3464.44	0.00224
3476.01	0.0021
3487.59	0.00186
3499.16	0.00172
3510.73	0.00159
3522.31	0.00165
3533.88	0.00359
3545.46	0.00512
3557.03	0.00212
3568.6	0.001
3580.18	0.0007739
3591.75	0.0005727
3603.33	0.0004989
3614.9	0.000429
3626.47	0.0004031
3638.05	0.0004002
3649.62	0.0002924
3661.2	0.000222
3672.77	0.0001848
3684.34	0.0002225
3695.92	0.0001219
3707.49	0.0001601
3719.07	0.0001418
3730.64	0.0002068
3742.21	0.0001584
3753.79	0.0001862
3765.36	0.0001454
3776.94	0.0001341
3788.51	6.785e-05
3800.08	0.0001432
3811.66	4.273e-05
3823.23	3.893e-05
3834.81	6.953e-05
3846.38	0.0001436
3857.95	0.0001099
3869.53	8.901e-05
3881.1	0.0001634
3892.68	0.0002236
3904.25	0.0001391
3915.82	6.312e-05
3927.4	0.0001207
3938.97	6.3e-05
3950.55	0.0001451
3962.12	0.0001311
3973.69	0.0002073
3985.27	0.0002252
3996.84	0.0003512
