Infrared Spectrum: 2,3-Dimethoxyphenylacetic acid
Formula: C 10 H 12 O 4
CAS: 90-53-9
State: gas
Origin: EPA-IR VAPOR PHASE LIBRARY
1/CM	ABSORBANCE
549.8	0.019247
559.445	0.021197
569.09	0.026907
578.734	0.038307
588.379	0.034367
598.024	0.023607
607.669	0.022807
617.313	0.025447
626.958	0.025667
636.603	0.023367
646.248	0.020627
655.893	0.020057
665.537	0.019337
675.182	0.015637
684.827	0.010607
694.472	0.007587
704.116	0.006227
713.761	0.006237
723.406	0.008227
733.051	0.016907
742.695	0.035617
752.34	0.032977
761.985	0.017027
771.63	0.011757
781.275	0.012027
790.919	0.010267
800.564	0.008317
810.209	0.010997
819.854	0.010437
829.498	0.005677
839.143	0.003717
848.788	0.004027
858.433	0.004377
868.078	0.004727
877.722	0.005227
887.367	0.005407
897.012	0.005197
906.657	0.005157
916.301	0.005657
925.946	0.005527
935.591	0.005967
945.236	0.006837
954.88	0.007617
964.525	0.007157
974.17	0.007197
983.815	0.009437
993.46	0.016357
1003.1	0.034437
1012.75	0.051877
1022.39	0.039857
1032.04	0.027037
1041.68	0.032947
1051.33	0.037877
1060.97	0.041377
1070.62	0.054727
1080.26	0.076667
1089.91	0.087607
1099.55	0.095897
1109.2	0.128097
1118.84	0.126697
1128.49	0.080677
1138.13	0.055917
1147.78	0.040807
1157.42	0.034237
1167.07	0.037507
1176.71	0.039427
1186.36	0.034407
1196	0.033797
1205.64	0.041667
1215.29	0.055687
1224.93	0.066007
1234.58	0.058307
1244.22	0.054377
1253.87	0.062197
1263.51	0.082867
1273.16	0.118217
1282.8	0.107207
1292.45	0.067217
1302.09	0.046277
1311.74	0.034817
1321.38	0.026037
1331.03	0.023327
1340.67	0.024777
1350.32	0.026697
1359.96	0.027477
1369.61	0.024187
1379.25	0.016417
1388.9	0.011827
1398.54	0.010857
1408.18	0.012527
1417.83	0.019937
1427.47	0.036397
1437.12	0.041607
1446.76	0.031097
1456.41	0.034017
1466.05	0.070127
1475.7	0.117837
1485.34	0.096567
1494.99	0.040527
1504.63	0.018287
1514.28	0.011547
1523.92	0.008447
1533.57	0.006957
1543.21	0.006087
1552.86	0.006297
1562.5	0.007627
1572.15	0.013017
1581.79	0.025357
1591.44	0.028707
1601.08	0.017517
1610.73	0.009537
1620.37	0.005587
1630.01	0.004207
1639.66	0.003627
1649.3	0.003257
1658.95	0.003117
1668.59	0.003277
1678.24	0.003637
1687.88	0.004417
1697.53	0.005467
1707.17	0.006897
1716.82	0.009557
1726.46	0.014417
1736.11	0.022697
1745.75	0.035167
1755.4	0.054047
1765.04	0.088737
1774.69	0.134987
1784.33	0.132047
1793.98	0.086987
1803.62	0.048027
1813.27	0.025957
1822.91	0.015587
1832.55	0.009907
1842.2	0.006677
1851.84	0.004757
1861.49	0.003697
1871.13	0.003057
1880.78	0.002877
1890.42	0.003177
1900.07	0.003517
1909.71	0.003037
1919.36	0.002487
1929	0.002027
1938.65	0.001907
1948.29	0.001867
1957.94	0.002067
1967.58	0.002287
1977.23	0.002557
1986.87	0.002887
1996.52	0.003177
2006.16	0.003607
2015.81	0.003847
2025.45	0.003557
2035.1	0.002837
2044.74	0.002227
2054.38	0.001927
2064.03	0.001647
2073.67	0.001637
2083.32	0.001557
2092.96	0.001427
2102.61	0.001307
2112.25	0.001277
2121.9	0.001327
2131.54	0.001347
2141.19	0.001397
2150.83	0.001537
2160.48	0.001607
2170.12	0.001517
2179.77	0.001437
2189.41	0.001347
2199.06	0.001387
2208.7	0.001637
2218.35	0.001697
2227.99	0.001577
2237.64	0.001437
2247.28	0.001277
2256.92	0.0011184
2266.57	0.0011202
2276.21	0.0010746
2285.86	0.001082
2295.5	0.0010339
2305.15	0.000999
2314.79	0.0008079
2324.44	0.0008301
2334.08	0.0009226
2343.73	0.00083
2353.37	0.0008957
2363.02	0.0008506
2372.66	0.0009106
2382.31	0.000901
2391.95	0.0010321
2401.6	0.0011452
2411.24	0.0010327
2420.89	0.0010593
2430.53	0.0011338
2440.18	0.0011399
2449.82	0.0009954
2459.47	0.0010126
2469.11	0.0011257
2478.75	0.0010697
2488.4	0.001227
2498.04	0.001257
2507.69	0.001327
2517.33	0.0011908
2526.98	0.001347
2536.62	0.001297
2546.27	0.001427
2555.91	0.001407
2565.56	0.001237
2575.2	0.001277
2584.85	0.0012026
2594.49	0.0010305
2604.14	0.0010462
2613.78	0.0008036
2623.43	0.0008208
2633.07	0.0008473
2642.72	0.0008488
2652.36	0.0008234
2662.01	0.0008474
2671.65	0.0009039
2681.29	0.0006449
2690.94	0.0007301
2700.58	0.000834
2710.23	0.0008706
2719.87	0.0007974
2729.52	0.0009085
2739.16	0.0009798
2748.81	0.0010769
2758.45	0.0009952
2768.1	0.0011085
2777.74	0.001597
2787.39	0.001837
2797.03	0.002547
2806.68	0.003707
2816.32	0.006077
2825.97	0.010787
2835.61	0.021387
2845.26	0.026207
2854.9	0.015367
2864.55	0.010537
2874.19	0.011357
2883.84	0.013587
2893.48	0.015507
2903.12	0.017217
2912.77	0.019717
2922.41	0.023597
2932.06	0.033257
2941.7	0.049367
2951.35	0.050107
2960.99	0.037267
2970.64	0.028487
2980.28	0.023567
2989.93	0.023217
2999.57	0.027287
3009.22	0.025387
3018.86	0.017207
3028.51	0.013497
3038.15	0.012377
3047.8	0.012457
3057.44	0.012627
3067.09	0.013327
3076.73	0.014557
3086.38	0.012447
3096.02	0.007437
3105.67	0.003767
3115.31	0.002357
3124.95	0.001917
3134.6	0.001527
3144.24	0.0012038
3153.89	0.0009667
3163.53	0.0009221
3173.18	0.0007464
3182.82	0.0007176
3192.47	0.0006677
3202.11	0.0005997
3211.76	0.0004202
3221.4	0.000222152
3231.05	0.00029969
3240.69	0.00024873
3250.34	0.0003591
3259.98	0.000217099
3269.63	0.0005113
3279.27	0.0004556
3288.92	0.0003696
3298.56	0.0003225
3308.21	0.0003688
3317.85	0.0003465
3327.49	0.0004473
3337.14	0.0004686
3346.78	0.0005183
3356.43	0.0008554
3366.07	0.0007971
3375.72	0.0007143
3385.36	0.0006442
3395.01	0.0006765
3404.65	0.0009816
3414.3	0.0011488
3423.94	0.001327
3433.59	0.001317
3443.23	0.0011105
3452.88	0.0011475
3462.52	0.0010447
3472.17	0.0011545
3481.81	0.001237
3491.46	0.0011686
3501.1	0.001497
3510.75	0.001897
3520.39	0.002157
3530.04	0.002487
3539.68	0.003807
3549.32	0.006157
3558.97	0.012067
3568.61	0.043177
3578.26	0.055297
3587.9	0.016617
3597.55	0.005067
3607.19	0.002757
3616.84	0.001667
3626.48	0.001237
3636.13	0.0006402
3645.77	0.0005788
3655.42	0.0005812
3665.06	0.00030612
3674.71	0.0003712
3684.35	0.0001993
3694	0.0001723
3703.64	0.00030781
3713.29	0.00031682
3722.93	0.00022722
3732.58	5.5e-05
3742.22	0.0001759
3751.86	0.0001938
3761.51	0.000321
3771.15	0
3780.8	6.3e-05
3790.44	0.00022631
3800.09	0.0001302
3809.73	8.6e-05
3819.38	7.4e-05
3829.02	0.0002381
3838.67	0.00025977
3848.31	0.0003736
3857.96	0.0003787
3867.6	0.0004471
3877.25	0.0004129
3886.89	0.0003497
3896.54	0.000319
3906.18	0.000544
3915.83	0.00032
3925.47	0.0003867
3935.12	0.00030993
3944.76	0.00024628
3954.41	0.0005319
3964.05	0.0003824
3973.69	0.0003976
3983.34	0.0005017
3992.98	0.0004116
