Infrared Spectrum: 3,5-Dichlorosalicylaldehyde
Formula: C 7 H 4 Cl 2 O 2
CAS: 90-60-8
State: gas
Origin: EPA-IR VAPOR PHASE LIBRARY
1/CM	ABSORBANCE
549.8	0.00585
559.445	0.00881
569.09	0.00988
578.734	0.00564
588.379	0.00491
598.024	0.00633
607.669	0.00604
617.313	0.00468
626.958	0.00368
636.603	0.00336
646.248	0.00449
655.893	0.0066
665.537	0.00876
675.182	0.01064
684.827	0.01993
694.472	0.04965
704.116	0.08354
713.761	0.06252
723.406	0.03998
733.051	0.04998
742.695	0.06174
752.34	0.05167
761.985	0.02706
771.63	0.0076
781.275	0.00396
790.919	0.00298
800.564	0.00219
810.209	0.00189
819.854	0.0022
829.498	0.00319
839.143	0.00454
848.788	0.01522
858.433	0.03462
868.078	0.03426
877.722	0.01397
887.367	0.00789
897.012	0.00621
906.657	0.00507
916.301	0.00532
925.946	0.00768
935.591	0.01469
945.236	0.01028
954.88	0.00165
964.525	0.0011
974.17	0.00127
983.815	0.0009742
993.46	0.0012
1003.1	0.00166
1012.75	0.00154
1022.39	0.00137
1032.04	0.00128
1041.68	0.00177
1051.33	0.00197
1060.97	0.00213
1070.62	0.0021
1080.26	0.00331
1089.91	0.00768
1099.55	0.01115
1109.2	0.01
1118.84	0.00924
1128.49	0.01116
1138.13	0.01509
1147.78	0.01925
1157.42	0.0356
1167.07	0.072
1176.71	0.07664
1186.36	0.07141
1196	0.12125
1205.64	0.0774
1215.29	0.02337
1224.93	0.01847
1234.58	0.01916
1244.22	0.02275
1253.87	0.02835
1263.51	0.0477
1273.16	0.11318
1282.8	0.14469
1292.45	0.06836
1302.09	0.02274
1311.74	0.01591
1321.38	0.02477
1331.03	0.02451
1340.67	0.01985
1350.32	0.02306
1359.96	0.0348
1369.61	0.04539
1379.25	0.03365
1388.9	0.02484
1398.54	0.02856
1408.18	0.04564
1417.83	0.08872
1427.47	0.10705
1437.12	0.08869
1446.76	0.09971
1456.41	0.09354
1466.05	0.0552
1475.7	0.02755
1485.34	0.01636
1494.99	0.01092
1504.63	0.00739
1514.28	0.00521
1523.92	0.00409
1533.57	0.0036
1543.21	0.00387
1552.86	0.00533
1562.5	0.00858
1572.15	0.00998
1581.79	0.00795
1591.44	0.00942
1601.08	0.01349
1610.73	0.01393
1620.37	0.01015
1630.01	0.01291
1639.66	0.01925
1649.3	0.0207
1658.95	0.02591
1668.59	0.07247
1678.24	0.23096
1687.88	0.22447
1697.53	0.05372
1707.17	0.02982
1716.82	0.02459
1726.46	0.01293
1736.11	0.00951
1745.75	0.00648
1755.4	0.00594
1765.04	0.00491
1774.69	0.00458
1784.33	0.00446
1793.98	0.00366
1803.62	0.00252
1813.27	0.00143
1822.91	0.00118
1832.55	0.00109
1842.2	0.00119
1851.84	0.00147
1861.49	0.00208
1871.13	0.00297
1880.78	0.0027
1890.42	0.00144
1900.07	0.00109
1909.71	0.00116
1919.36	0.0009387
1929	0.0006809
1938.65	0.0005429
1948.29	0.000523
1957.94	0.000417
1967.58	0.00052
1977.23	0.0005483
1986.87	0.000685
1996.52	0.0006264
2006.16	0.0007399
2015.81	0.0008715
2025.45	0.0009649
2035.1	0.000845
2044.74	0.0004139
2054.38	0.0002703
2064.03	0.0002921
2073.67	0.0003596
2083.32	0.0004021
2092.96	0.0003627
2102.61	0.0006982
2112.25	0.000908
2121.9	0.00112
2131.54	0.00111
2141.19	0.0008052
2150.83	0.0005572
2160.48	0.0004543
2170.12	0.000424
2179.77	0.0003914
2189.41	0.0005097
2199.06	0.0005409
2208.7	0.0005887
2218.35	0.0005484
2227.99	0.0004958
2237.64	0.0003225
2247.28	0.0002454
2256.92	0.0002105
2266.57	0.0004019
2276.21	0.0005433
2285.86	0.0006992
2295.5	0.0008317
2305.15	0.0007789
2314.79	0.0006222
2324.44	0.0006549
2334.08	0.0006708
2343.73	0.0006597
2353.37	0.0007061
2363.02	0.0007289
2372.66	0.0006905
2382.31	0.0005659
2391.95	0.0006097
2401.6	0.0005376
2411.24	0.0006326
2420.89	0.000821
2430.53	0.0009002
2440.18	0.0009003
2449.82	0.0009297
2459.47	0.00117
2469.11	0.00134
2478.75	0.00158
2488.4	0.00135
2498.04	0.00126
2507.69	0.00119
2517.33	0.00127
2526.98	0.00131
2536.62	0.00158
2546.27	0.00213
2555.91	0.00247
2565.56	0.00226
2575.2	0.00198
2584.85	0.00217
2594.49	0.00213
2604.14	0.00206
2613.78	0.00193
2623.43	0.0019
2633.07	0.00193
2642.72	0.00217
2652.36	0.0022
2662.01	0.00232
2671.65	0.0025
2681.29	0.00257
2690.94	0.00283
2700.58	0.00326
2710.23	0.00412
2719.87	0.00627
2729.52	0.00966
2739.16	0.01014
2748.81	0.00824
2758.45	0.00717
2768.1	0.0064
2777.74	0.00573
2787.39	0.00561
2797.03	0.00603
2806.68	0.00718
2816.32	0.00971
2825.97	0.0161
2835.61	0.03478
2845.26	0.05171
2854.9	0.03133
2864.55	0.01245
2874.19	0.00836
2883.84	0.00559
2893.48	0.00434
2903.12	0.0037
2912.77	0.00342
2922.41	0.00328
2932.06	0.00336
2941.7	0.00355
2951.35	0.00366
2960.99	0.00392
2970.64	0.00406
2980.28	0.00424
2989.93	0.00416
2999.57	0.00427
3009.22	0.00459
3018.86	0.00458
3028.51	0.00461
3038.15	0.00474
3047.8	0.00514
3057.44	0.00561
3067.09	0.00578
3076.73	0.00616
3086.38	0.00698
3096.02	0.0075
3105.67	0.00824
3115.31	0.00894
3124.95	0.01023
3134.6	0.01193
3144.24	0.0133
3153.89	0.0138
3163.53	0.01447
3173.18	0.01527
3182.82	0.01562
3192.47	0.01582
3202.11	0.01633
3211.76	0.01637
3221.4	0.01576
3231.05	0.01505
3240.69	0.01404
3250.34	0.01327
3259.98	0.01302
3269.63	0.01322
3279.27	0.01333
3288.92	0.01333
3298.56	0.01291
3308.21	0.0125
3317.85	0.01214
3327.49	0.01181
3337.14	0.01168
3346.78	0.01232
3356.43	0.01202
3366.07	0.01007
3375.72	0.00854
3385.36	0.00761
3395.01	0.0072
3404.65	0.00687
3414.3	0.00649
3423.94	0.00577
3433.59	0.00551
3443.23	0.00533
3452.88	0.00501
3462.52	0.00464
3472.17	0.00435
3481.81	0.00404
3491.46	0.00377
3501.1	0.00354
3510.75	0.0032
3520.39	0.00299
3530.04	0.00277
3539.68	0.00265
3549.32	0.00361
3558.97	0.00951
3568.61	0.01179
3578.26	0.00494
3587.9	0.00195
3597.55	0.00147
3607.19	0.00117
3616.84	0.0009606
3626.48	0.0008042
3636.13	0.0008453
3645.77	0.0006394
3655.42	0.0006316
3665.06	0.0006745
3674.71	0.0003863
3684.35	0.0004439
3694	0.0005113
3703.64	0.000346
3713.29	0.0002104
3722.93	0.0001144
3732.58	0.0003535
3742.22	0.000249
3751.86	0.0004625
3761.51	0.0002472
3771.15	0.0003561
3780.8	0.0003013
3790.44	0.0001859
3800.09	0.0001679
3809.73	0.0003388
3819.38	0.0001271
3829.02	0.0001762
3838.67	0.0002948
3848.31	1.925e-05
3857.96	0.00032
3867.6	0.0002598
3877.25	0.0001766
3886.89	0.0001365
3896.54	0.0001819
3906.18	0.0003907
3915.83	0.00035
3925.47	0.0004261
3935.12	0.00032
3944.76	0.0001249
3954.41	0.0002875
3964.05	0.0001091
3973.69	8.736e-06
3983.34	0.0002884
3992.98	0.0004377
