Infrared Spectrum: P-CRESOL, 2,6-BIS(2-HYDROXY-3-TERT-BUTYL-5-METHYLBENZYL)
Formula: C31 H40 O3
CAS: 90-68-6
State: SOLID (KBr PELLET)
Class: COBLENTZ
Instrument: Not specified, most likely a prism, grating, or hybrid spectrometer.
Sampling: TRANSMISSION
Resolution: 4
Origin: TENNESSEE EASTMAN COMPANY, RESEARCH LABORATORIES
MICROMETERS	TRANSMITTANCE
2.062	0.887
2.10316	0.888
2.14432	0.888
2.18548	0.894
2.22664	0.894
2.2678	0.882
2.30896	0.88
2.35012	0.882
2.39128	0.883
2.43244	0.885
2.4736	0.885
2.51477	0.887
2.55593	0.885
2.59709	0.885
2.63825	0.888
2.67941	0.887
2.72057	0.753
2.76173	0.42
2.80289	0.355
2.84405	0.288
2.88521	0.218
2.92637	0.138
2.96753	0.109
3.00869	0.105
3.04985	0.133
3.09101	0.232
3.13217	0.345
3.17333	0.483
3.21449	0.596
3.25565	0.618
3.29681	0.565
3.33797	0.328
3.37914	0.075
3.4203	0.186
3.46146	0.252
3.50262	0.663
3.54378	0.76
3.58494	0.803
3.6261	0.81
3.66726	0.793
3.70842	0.81
3.74958	0.832
3.79074	0.847
3.8319	0.87
3.87306	0.87
3.91422	0.871
3.95538	0.873
3.99654	0.883
4.0377	0.897
4.07886	0.9
4.12002	0.912
4.16118	0.914
4.20234	0.921
4.24351	0.921
4.28467	0.921
4.32583	0.923
4.36699	0.94
4.40815	0.952
4.44931	0.953
4.49047	0.958
4.53163	0.964
4.57279	0.967
4.61395	0.969
4.65511	0.969
4.69627	0.97
4.73743	0.972
4.77859	0.972
4.81975	0.969
4.86091	0.967
4.90207	0.965
4.94323	0.965
4.98439	0.965
5.02555	0.965
5.06671	0.964
5.10787	0.965
5.14904	0.964
5.1902	0.964
5.23136	0.964
5.27252	0.964
5.31368	0.967
5.35484	0.967
5.396	0.969
5.43716	0.97
5.47832	0.965
5.51948	0.953
5.56064	0.945
5.6018	0.921
5.64296	0.899
5.68412	0.858
5.72528	0.834
5.76644	0.87
5.8076	0.894
5.84876	0.902
5.88992	0.905
5.93108	0.905
5.97224	0.9
6.01341	0.859
6.05457	0.835
6.09573	0.786
6.13689	0.753
6.17805	0.723
6.21921	0.671
6.26037	0.7
6.30153	0.817
6.34269	0.849
6.38385	0.851
6.42501	0.847
6.46617	0.841
6.50733	0.822
6.54849	0.796
6.58965	0.75
6.63081	0.675
6.67197	0.427
6.71313	0.044
6.75429	0.051
6.79545	0.09
6.83661	0.095
6.87778	0.07
6.91894	0.082
6.9601	0.278
7.00126	0.345
7.04242	0.4
7.08358	0.509
7.12474	0.517
7.1659	0.389
7.20706	0.417
7.24822	0.386
7.28938	0.333
7.33054	0.278
7.3717	0.275
7.41286	0.482
7.45402	0.523
7.49518	0.555
7.53634	0.557
7.5775	0.514
7.61866	0.483
7.65982	0.514
7.70098	0.523
7.74215	0.388
7.78331	0.335
7.82447	0.437
7.86563	0.497
7.90679	0.492
7.94795	0.367
7.98911	0.285
8.03027	0.17
8.07143	0.114
8.11259	0.078
8.15375	0.075
8.19491	0.117
8.23607	0.177
8.27723	0.176
8.31839	0.169
8.35955	0.177
8.40071	0.188
8.44187	0.191
8.48303	0.211
8.52419	0.261
8.56535	0.302
8.60652	0.307
8.64768	0.369
8.68884	0.393
8.73	0.312
8.77116	0.384
8.81232	0.48
8.85348	0.502
8.89464	0.502
8.9358	0.512
8.97696	0.629
9.01812	0.7
9.05928	0.733
9.10044	0.75
9.1416	0.765
9.18276	0.776
9.22392	0.782
9.26508	0.786
9.30624	0.789
9.3474	0.791
9.38856	0.793
9.42972	0.784
9.47088	0.769
9.51205	0.736
9.55321	0.699
9.59437	0.661
9.63553	0.656
9.67669	0.654
9.71785	0.646
9.75901	0.676
9.80017	0.695
9.84133	0.723
9.88249	0.735
9.92365	0.753
9.96481	0.776
10.006	0.791
10.0471	0.796
10.0883	0.786
10.1295	0.757
10.1706	0.736
10.2118	0.757
10.2529	0.782
10.2941	0.786
10.3353	0.781
10.3764	0.786
10.4176	0.798
10.4587	0.803
10.4999	0.805
10.5411	0.805
10.5822	0.808
10.6234	0.806
10.6645	0.755
10.7057	0.711
10.7469	0.697
10.788	0.694
10.8292	0.656
10.8703	0.623
10.9115	0.74
10.9527	0.762
10.9938	0.735
11.035	0.707
11.0761	0.731
11.1173	0.757
11.1585	0.76
11.1996	0.755
11.2408	0.755
11.2819	0.767
11.3231	0.789
11.3643	0.801
11.4054	0.764
11.4466	0.658
11.4877	0.463
11.5289	0.314
11.5701	0.252
11.6112	0.234
11.6524	0.316
11.6936	0.483
11.7347	0.683
11.7759	0.793
11.817	0.829
11.8582	0.846
11.8994	0.854
11.9405	0.858
11.9817	0.859
12.0228	0.863
12.064	0.863
12.1052	0.861
12.1463	0.861
12.1875	0.854
12.2286	0.846
12.2698	0.835
12.311	0.81
12.3521	0.748
12.3933	0.618
12.4344	0.502
12.4756	0.488
12.5168	0.593
12.5579	0.671
12.5991	0.683
12.6402	0.63
12.6814	0.601
12.7226	0.625
12.7637	0.635
12.8049	0.6
12.846	0.565
12.8872	0.538
12.9284	0.502
12.9695	0.466
13.0107	0.439
13.0518	0.423
13.093	0.417
13.1342	0.437
13.1753	0.507
13.2165	0.598
13.2576	0.625
13.2988	0.659
13.34	0.699
13.3811	0.735
13.4223	0.76
13.4635	0.776
13.5046	0.788
13.5458	0.801
13.5869	0.801
13.6281	0.803
13.6693	0.805
13.7104	0.806
13.7516	0.806
13.7927	0.806
13.8339	0.806
13.8751	0.806
13.9162	0.806
13.9574	0.806
13.9985	0.806
14.0397	0.806
14.0809	0.805
14.122	0.801
14.1632	0.801
14.2043	0.803
14.2455	0.801
14.2867	0.801
14.3278	0.801
14.369	0.796
14.4101	0.789
14.4513	0.782
14.4925	0.781
14.5336	0.777
14.5748	0.774
14.6159	0.772
14.6571	0.772
14.6983	0.769
14.7394	0.769
14.7806	0.765
14.8217	0.762
14.8629	0.758
14.9041	0.755
14.9452	0.75
14.9864	0.74
15.0275	0.736
15.0687	0.733
15.1099	0.733
15.151	0.735
15.1922	0.733
15.2334	0.729
15.2745	0.723
15.3157	0.717
15.3568	0.712
15.398	0.705
15.4392	0.695
15.4803	0.687
15.5215	0.683
15.5626	0.68
15.6038	0.68
15.645	0.673
15.6861	0.668
15.7273	0.659
15.7684	0.652
15.8096	0.646
15.8508	0.642
15.8919	0.637
15.9331	0.627
15.9742	0.617
16.0154	0.615
