Infrared Spectrum: PHENOL, 2,4,6-TRIS(DIMETHYLAMINOMETHYL)-
Formula: C15 H27 N3 O
CAS: 90-72-2
State: SOLUTION (10% IN CCl4 FOR 3800-1330, 10% IN CS2 FOR 1330-440 CM^-^1)
Class: COBLENTZ III
Instrument: DOW KBr FOREPRISM-GRATING
Instrument parameters: BLAZED AT 3.5, 12.0, 20.0 MICRON, CHANGED AT 5.0, 7.5, 14.9 MICRON
Sampling: TRANSMISSION
Path length: 0.012, 0.011 CM
Resolution: 4
Origin: DOW CHEMICAL COMPANY
1/CM	TRANSMITTANCE
441.739	0.953
450.435	0.945
459.13	0.945
467.826	0.953
476.522	0.955
485.217	0.955
493.913	0.946
502.609	0.933
511.304	0.931
520	0.91
528.696	0.843
537.391	0.869
546.087	0.915
554.783	0.915
563.478	0.922
572.174	0.955
580.87	0.957
589.565	0.94
598.261	0.908
606.957	0.903
615.652	0.899
624.348	0.873
633.044	0.85
641.739	0.806
650.435	0.778
659.131	0.84
667.826	0.896
676.522	0.903
685.218	0.896
693.913	0.885
702.609	0.873
711.305	0.859
720	0.851
728.696	0.846
737.392	0.839
746.087	0.801
754.783	0.783
763.479	0.764
772.174	0.756
780.87	0.693
789.566	0.491
798.261	0.643
806.957	0.708
815.652	0.668
824.348	0.602
833.044	0.326
841.739	0.157
850.435	0.269
859.131	0.515
867.826	0.629
876.522	0.572
885.218	0.352
893.913	0.482
902.609	0.731
911.305	0.756
920	0.842
928.696	0.85
937.392	0.838
946.087	0.795
954.783	0.797
963.479	0.804
972.174	0.78
980.87	0.582
989.566	0.307
998.261	0.67
1006.96	0.775
1015.65	0.681
1024.35	0.307
1033.04	0.08
1041.74	0.069
1050.44	0.365
1059.13	0.736
1067.83	0.831
1076.52	0.842
1085.22	0.834
1093.91	0.62
1102.61	0.757
1111.31	0.868
1120	0.851
1128.7	0.778
1137.39	0.393
1146.09	0.357
1154.78	0.624
1163.48	0.725
1172.17	0.359
1180.87	0.371
1189.57	0.795
1198.26	0.824
1206.96	0.805
1215.65	0.722
1224.35	0.495
1233.04	0.363
1241.74	0.342
1250.44	0.277
1259.13	0.136
1267.83	0.304
1276.52	0.307
1285.22	0.304
1293.91	0.375
1302.61	0.273
1311.31	0.472
1320	0.648
1328.7	0.677
1337.39	0.658
1346.09	0.51
1354.78	0.076
1363.48	0.1
1372.17	0.466
1380.87	0.553
1389.57	0.512
1398.26	0.463
1406.96	0.465
1415.65	0.629
1424.35	0.642
1433.04	0.3491
1441.74	0.2
1450.44	0.1
1459.13	0.02
1467.83	0.013
1476.52	0.025
1485.22	0.0531
1493.91	0.729
1502.61	0.806
1511.31	0.848
1520	0.868
1528.7	0.881
1537.39	0.891
1546.09	0.893
1554.78	0.895
1563.48	0.889
1572.18	0.882
1580.87	0.861
1589.57	0.827
1598.26	0.726
1606.96	0.523
1615.65	0.416
1624.35	0.651
1633.04	0.851
1641.74	0.917
1650.44	0.93
1659.13	0.912
1667.83	0.906
1676.52	0.877
1685.22	0.794
1693.91	0.834
1702.61	0.897
1711.31	0.91
1720	0.914
1728.7	0.915
1737.39	0.917
1746.09	0.917
1754.78	0.927
1763.48	0.926
1772.18	0.919
1780.87	0.914
1789.57	0.91
1798.26	0.908
1806.96	0.912
1815.65	0.912
1824.35	0.915
1833.05	0.921
1841.74	0.922
1850.44	0.921
1859.13	0.921
1867.83	0.921
1876.52	0.921
1885.22	0.923
1893.91	0.929
1902.61	0.936
1911.31	0.944
1920	0.949
1928.7	0.951
1937.39	0.951
1946.09	0.951
1954.78	0.952
1963.48	0.955
1972.18	0.948
1980.87	0.941
1989.57	0.933
1998.26	0.929
2006.96	0.923
2015.65	0.914
2024.35	0.915
2033.05	0.931
2041.74	0.945
2050.44	0.934
2059.13	0.927
2067.83	0.926
2076.52	0.922
2085.22	0.918
2093.91	0.918
2102.61	0.918
2111.31	0.933
2120	0.938
2128.7	0.938
2137.39	0.938
2146.09	0.938
2154.78	0.936
2163.48	0.931
2172.18	0.934
2180.87	0.933
2189.57	0.925
2198.26	0.921
2206.96	0.922
2215.65	0.918
2224.35	0.918
2233.05	0.915
2241.74	0.91
2250.44	0.899
2259.13	0.892
2267.83	0.887
2276.52	0.884
2285.22	0.884
2293.92	0.882
2302.61	0.882
2311.31	0.882
2320	0.884
2328.7	0.884
2337.39	0.882
2346.09	0.877
2354.78	0.876
2363.48	0.878
2372.18	0.873
2380.87	0.868
2389.57	0.859
2398.26	0.847
2406.96	0.836
2415.65	0.832
2424.35	0.824
2433.05	0.813
2441.74	0.81
2450.44	0.809
2459.13	0.806
2467.83	0.804
2476.52	0.791
2485.22	0.7651
2493.92	0.752
2502.61	0.751
2511.31	0.751
2520	0.742
2528.7	0.731
2537.39	0.726
2546.09	0.721
2554.79	0.707
2563.48	0.7
2572.18	0.6821
2580.87	0.676
2589.57	0.659
2598.26	0.631
2606.96	0.605
2615.65	0.587
2624.35	0.576
2633.05	0.576
2641.74	0.574
2650.44	0.572
2659.13	0.561
2667.83	0.546
2676.52	0.5141
2685.22	0.469
2693.92	0.4011
2702.61	0.352
2711.31	0.3151
2720	0.293
2728.7	0.312
2737.39	0.299
2746.09	0.2101
2754.79	0.0741
2763.48	0.016
2772.18	0.008
2780.87	0.01
2789.57	0.028
2798.26	0.077
2806.96	0.046
2815.65	0.006
2824.35	0.023
2833.05	0.0429
2841.74	0.097
2850.44	0.0651
2859.13	0.031
2867.83	0.0987
2876.52	0.115
2885.22	0.117
2893.92	0.136
2902.61	0.126
2911.31	0.122
2920	0.114
2928.7	0.092
2937.39	0.047
2946.09	0.031
2954.79	0.04
2963.48	0.0869
2972.18	0.0631
2980.87	0.057
2989.57	0.1117
2998.26	0.2499
3006.96	0.3849
3015.66	0.427
3024.35	0.4549
3033.05	0.484
3041.74	0.502
3050.44	0.515
3059.13	0.531
3067.83	0.545
3076.52	0.555
3085.22	0.56
3093.92	0.561
3102.61	0.563
3111.31	0.568
3120	0.572
3128.7	0.578
3137.39	0.585
3146.09	0.594
3154.79	0.604
3163.48	0.613
3172.18	0.621
3180.87	0.638
3189.57	0.643
3198.26	0.657
3206.96	0.672
3215.66	0.685
3224.35	0.702
3233.05	0.7179
3241.74	0.737
3250.44	0.755
3259.13	0.768
3267.83	0.782
3276.53	0.794
3285.22	0.809
3293.92	0.823
3302.61	0.832
3311.31	0.844
3320	0.853
3328.7	0.863
3337.39	0.873
3346.09	0.887
3354.79	0.897
3363.48	0.907
3372.18	0.912
3380.87	0.923
3389.57	0.933
3398.26	0.944
3406.96	0.951
3415.66	0.956
3424.35	0.957
3433.05	0.959
3441.74	0.963
3450.44	0.971
3459.13	0.972
3467.83	0.976
3476.53	0.978
3485.22	0.98
3493.92	0.985
3502.61	0.986
3511.31	0.987
3520	0.989
3528.7	0.989
3537.39	0.991
3546.09	0.991
3554.79	0.993
3563.48	0.995
3572.18	0.997
3580.87	0.998
3589.57	0.997
3598.26	0.997
3606.96	0.995
3615.66	0.994
3624.35	0.995
3633.05	0.997
3641.74	0.995
3650.44	0.994
3659.13	0.99
3667.83	0.982
3676.53	0.975
3685.22	0.99
3693.92	1
3702.61	0.998
3711.31	1
3720	0.998
3728.7	0.998
3737.4	1
3746.09	1
3754.79	1
3763.48	1
3772.18	0.997
3780.87	0.994
