Infrared Spectrum: TENUATE
Formula: C13 H19 N O
CAS: 90-84-6
State: SOLUTION (CS2 FOR 2-15 microns, AND C2Cl4 FOR 5-7.1 microns)
Class: COBLENTZ III
Instrument: PERKIN-ELMER 21 (GRATING)
Instrument parameters: FILTER AT ABOUT 10 MICRONS
Sampling: TRANSMISSION
Path length: 0.1 CM
Resolution: 2
1/CM	TRANSMITTANCE
4000	0.9132
3991	0.9124
3982	0.9131
3973	0.916
3964	0.9201
3955	0.924
3946	0.9265
3937	0.9292
3928	0.9318
3919	0.9343
3910	0.9367
3901	0.939
3892	0.9414
3883	0.9437
3874	0.9461
3865	0.9485
3856	0.9508
3847	0.953
3838	0.9553
3829	0.9575
3820	0.9592
3811	0.9609
3802	0.9623
3793	0.9635
3784	0.9642
3775	0.9645
3766	0.9647
3757	0.9646
3748	0.9644
3739	0.9644
3730	0.9642
3721	0.964
3712	0.9632
3703	0.9617
3694	0.9605
3685	0.9602
3676	0.961
3667	0.9617
3658	0.9624
3649	0.9631
3640	0.9639
3631	0.9647
3622	0.9654
3613	0.966
3604	0.9666
3595	0.967
3586	0.9675
3577	0.968
3568	0.9685
3559	0.969
3550	0.9695
3541	0.9701
3532	0.9705
3523	0.971
3514	0.9716
3505	0.9723
3496	0.973
3487	0.9737
3478	0.9745
3469	0.975
3460	0.9754
3451	0.9757
3442	0.9761
3433	0.9763
3424	0.9765
3415	0.9761
3406	0.9756
3397	0.9736
3388	0.9712
3379	0.9681
3370	0.9612
3361	0.9499
3352	0.9385
3343	0.9283
3334	0.9282
3325	0.9323
3316	0.9397
3307	0.947
3298	0.9545
3289	0.9618
3280	0.9689
3271	0.9692
3262	0.9689
3253	0.9671
3244	0.965
3235	0.9627
3226	0.9604
3217	0.9578
3208	0.9549
3199	0.952
3190	0.949
3181	0.9464
3172	0.9442
3163	0.9418
3154	0.9374
3145	0.9317
3136	0.9306
3127	0.9297
3118	0.9284
3109	0.9213
3100	0.871
3091	0.8068
3082	0.7421
3073	0.6771
3064	0.6118
3055	0.6051
3046	0.6192
3037	0.635
3028	0.6508
3019	0.6668
3010	0.6699
3001	0.5991
2992	0.4616
2983	0.3232
2974	0.1841
2965	0.0922
2956	0.1226
2947	0.1698
2938	0.2057
2929	0.2015
2920	0.1942
2911	0.2077
2902	0.2377
2893	0.268
2884	0.2984
2875	0.3291
2866	0.3384
2857	0.345
2848	0.3464
2839	0.3516
2830	0.326
2821	0.2931
2812	0.2599
2803	0.243
2794	0.302
2785	0.3924
2776	0.4833
2767	0.5989
2758	0.6632
2749	0.6912
2740	0.7151
2731	0.7341
2722	0.7397
2713	0.7415
2704	0.75
2695	0.7788
2686	0.8121
2677	0.8328
2668	0.8511
2659	0.8691
2650	0.8765
2641	0.8809
2632	0.8845
2623	0.8888
2614	0.8987
2605	0.9128
2596	0.9183
2587	0.9187
2578	0.9213
2569	0.9244
2560	0.929
2551	0.9349
2542	0.9463
2533	0.9549
2524	0.9614
2515	0.9665
2506	0.9701
2497	0.9736
2488	0.9782
2479	0.982
2470	0.9846
2461	0.9855
2452	0.9853
2443	0.9798
2434	0.9739
2425	0.9714
2416	0.9716
2407	0.9725
2398	0.974
2389	0.9756
2380	0.9771
2371	0.9777
2362	0.9782
2353	0.9783
2344	0.9778
2335	0.9775
2326	0.9777
2317	0.9778
2308	0.9774
2299	0.9762
2290	0.9686
2281	0.9653
2272	0.9702
2263	0.9802
2254	0.9874
2245	0.9891
2236	0.9903
2227	0.9921
2218	0.9798
2209	0.9637
2200	0.96
2191	0.9608
2182	0.9592
2173	0.9578
2164	0.9574
2155	0.9577
2146	0.9581
2137	0.9587
2128	0.9587
2119	0.9585
2110	0.9583
2101	0.9587
2092	0.959
2083	0.9553
2074	0.9585
2065	0.9608
2056	0.9555
2047	0.9566
2038	0.9571
2029	0.9556
2020	0.955
2011	0.9767
2002	0.976
1993	0.9742
1984	0.9704
1975	0.9548
1966	0.9236
1957	0.9091
1948	0.9225
1939	0.9477
1930	0.9512
1921	0.9498
1912	0.9347
1903	0.9281
1894	0.9259
1885	0.9391
1876	0.9495
1867	0.956
1858	0.9589
1849	0.959
1840	0.9566
1831	0.9487
1822	0.9312
1813	0.9086
1804	0.8903
1795	0.9221
1786	0.9339
1777	0.9275
1768	0.9158
1759	0.9114
1750	0.9121
1741	0.8967
1732	0.8721
1723	0.8341
1714	0.7007
1705	0.5573
1696	0.1904
1687	0.0398
1678	0.1238
1669	0.419
1660	0.6672
1651	0.7204
1642	0.7593
1633	0.791
1624	0.8089
1615	0.8107
1606	0.8125
1597	0.5333
1588	0.7114
1579	0.6851
1570	0.7742
1561	0.8651
1552	0.8867
1543	0.8962
1534	0.8901
1525	0.8889
1516	0.887
1507	0.8877
1498	0.8814
1489	0.8459
1480	0.756
1471	0.6028
1462	0.5528
1453	0.4632
1444	0.344
1435	0.681
1426	0.8086
1417	0.8255
1408	0.8186
1399	0.7131
1390	0.4973
1381	0.1834
1372	0.2022
1363	0.303
1354	0.4879
1345	0.4036
1336	0.3368
1327	0.3826
1318	0.4614
1309	0.5006
1300	0.4166
1291	0.4267
1282	0.4688
1273	0.6032
1264	0.5499
1255	0.6615
1246	0.5612
1237	0.38
1228	0.1319
1219	0.0403
1210	0.171
1201	0.1185
1192	0.3076
1183	0.3158
1174	0.1732
1165	0.248
1156	0.4057
1147	0.6109
1138	0.5804
1129	0.314
1120	0.4314
1111	0.4284
1102	0.2924
1093	0.2607
1084	0.3171
1075	0.3982
1066	0.3199
1057	0.5881
1048	0.6731
1039	0.6145
1030	0.5909
1021	0.7111
1012	0.7585
1003	0.6789
994	0.7953
985	0.7608
976	0.5887
967	0.0752
958	0.307
949	0.6229
940	0.766
931	0.7092
922	0.5864
913	0.6045
904	0.2664
895	0.6475
886	0.8543
877	0.8946
868	0.9039
859	0.9059
850	0.9045
841	0.8846
832	0.8848
823	0.8835
814	0.8069
805	0.6528
796	0.5518
787	0.7121
778	0.7182
769	0.748
760	0.6882
751	0.7156
742	0.4968
733	0.0775
724	0.5993
715	0.6646
706	0.557
697	0.2254
688	0.0378
679	0.5094
