Infrared Spectrum: N,N-Diethyl-4-methyl-1-piperazinecarboxamide
Formula: C 10 H 21 N 3 O
CAS: 90-89-1
State: gas
Origin: EPA-IR VAPOR PHASE LIBRARY
1/CM	ABSORBANCE
549.8	0.00492
559.445	0.00586
569.09	0.00728
578.734	0.0065
588.379	0.00538
598.024	0.00395
607.669	0.00236
617.313	0.0019
626.958	0.00225
636.603	0.00309
646.248	0.00271
655.893	0.00153
665.537	0.001
675.182	0.0009004
684.827	0.00118
694.472	0.001
704.116	0.00138
713.761	0.00142
723.406	0.00182
733.051	0.00198
742.695	0.00254
752.34	0.00338
761.985	0.00664
771.63	0.01628
781.275	0.02457
790.919	0.02852
800.564	0.02515
810.209	0.01017
819.854	0.00468
829.498	0.00303
839.143	0.00272
848.788	0.00326
858.433	0.00373
868.078	0.00246
877.722	0.00216
887.367	0.00196
897.012	0.00206
906.657	0.00264
916.301	0.00337
925.946	0.00546
935.591	0.00826
945.236	0.0093
954.88	0.01243
964.525	0.01985
974.17	0.02121
983.815	0.02052
993.46	0.05012
1003.1	0.09632
1012.75	0.06097
1022.39	0.02447
1032.04	0.0189
1041.68	0.02442
1051.33	0.04069
1060.97	0.04926
1070.62	0.05015
1080.26	0.04646
1089.91	0.04563
1099.55	0.04326
1109.2	0.03798
1118.84	0.0392
1128.49	0.06374
1138.13	0.10681
1147.78	0.10014
1157.42	0.06636
1167.07	0.06176
1176.71	0.0897
1186.36	0.08947
1196	0.06188
1205.64	0.06257
1215.29	0.06478
1224.93	0.08378
1234.58	0.12829
1244.22	0.16976
1253.87	0.22984
1263.51	0.15915
1273.16	0.0839
1282.8	0.1058
1292.45	0.14446
1302.09	0.09839
1311.74	0.06507
1321.38	0.06116
1331.03	0.0661
1340.67	0.07293
1350.32	0.09306
1359.96	0.12082
1369.61	0.12305
1379.25	0.13721
1388.9	0.14724
1398.54	0.18257
1408.18	0.20681
1417.83	0.14746
1427.47	0.09239
1437.12	0.07282
1446.76	0.09089
1456.41	0.11493
1466.05	0.10585
1475.7	0.09339
1485.34	0.05856
1494.99	0.03195
1504.63	0.02293
1514.28	0.0188
1523.92	0.01615
1533.57	0.01443
1543.21	0.0134
1552.86	0.01336
1562.5	0.0133
1572.15	0.0133
1581.79	0.01356
1591.44	0.01416
1601.08	0.01609
1610.73	0.01973
1620.37	0.02498
1630.01	0.03119
1639.66	0.03815
1649.3	0.05929
1658.95	0.13463
1668.59	0.28033
1678.24	0.33595
1687.88	0.18758
1697.53	0.06752
1707.17	0.03605
1716.82	0.02743
1726.46	0.02331
1736.11	0.01874
1745.75	0.01346
1755.4	0.00939
1765.04	0.00724
1774.69	0.00609
1784.33	0.00519
1793.98	0.0044
1803.62	0.00372
1813.27	0.00328
1822.91	0.00302
1832.55	0.00284
1842.2	0.00273
1851.84	0.00257
1861.49	0.00255
1871.13	0.00252
1880.78	0.00248
1890.42	0.00242
1900.07	0.00252
1909.71	0.00278
1919.36	0.00301
1929	0.00294
1938.65	0.00257
1948.29	0.00235
1957.94	0.00223
1967.58	0.00228
1977.23	0.00221
1986.87	0.00211
1996.52	0.00217
2006.16	0.00225
2015.81	0.00211
2025.45	0.00195
2035.1	0.00198
2044.74	0.00197
2054.38	0.00216
2064.03	0.00237
2073.67	0.00221
2083.32	0.00206
2092.96	0.00224
2102.61	0.00229
2112.25	0.00232
2121.9	0.00215
2131.54	0.00201
2141.19	0.00198
2150.83	0.00194
2160.48	0.00187
2170.12	0.00171
2179.77	0.00155
2189.41	0.00151
2199.06	0.00155
2208.7	0.00163
2218.35	0.00165
2227.99	0.00166
2237.64	0.00173
2247.28	0.00169
2256.92	0.00164
2266.57	0.00192
2276.21	0.00201
2285.86	0.00209
2295.5	0.00207
2305.15	0.0022
2314.79	0.00232
2324.44	0.00227
2334.08	0.00201
2343.73	0.00198
2353.37	0.00201
2363.02	0.00223
2372.66	0.00238
2382.31	0.00246
2391.95	0.00239
2401.6	0.00229
2411.24	0.00228
2420.89	0.00233
2430.53	0.00249
2440.18	0.00237
2449.82	0.00221
2459.47	0.00209
2469.11	0.00212
2478.75	0.00224
2488.4	0.00239
2498.04	0.00247
2507.69	0.0028
2517.33	0.00284
2526.98	0.00272
2536.62	0.00278
2546.27	0.00278
2555.91	0.00311
2565.56	0.003
2575.2	0.00269
2584.85	0.00263
2594.49	0.00278
2604.14	0.00305
2613.78	0.00353
2623.43	0.00387
2633.07	0.00472
2642.72	0.00562
2652.36	0.00686
2662.01	0.00901
2671.65	0.01227
2681.29	0.01537
2690.94	0.01654
2700.58	0.01621
2710.23	0.0158
2719.87	0.01733
2729.52	0.02086
2739.16	0.02692
2748.81	0.03153
2758.45	0.03493
2768.1	0.05061
2777.74	0.06937
2787.39	0.10092
2797.03	0.12666
2806.68	0.08941
2816.32	0.05609
2825.97	0.04303
2835.61	0.04765
2845.26	0.07295
2854.9	0.09368
2864.55	0.09577
2874.19	0.09669
2883.84	0.09967
2893.48	0.09465
2903.12	0.096
2912.77	0.10881
2922.41	0.12767
2932.06	0.16379
2941.7	0.21528
2951.35	0.17285
2960.99	0.09749
2970.64	0.13339
2980.28	0.14191
2989.93	0.1046
2999.57	0.07176
3009.22	0.03933
3018.86	0.02233
3028.51	0.01502
3038.15	0.01167
3047.8	0.00943
3057.44	0.00814
3067.09	0.00725
3076.73	0.00661
3086.38	0.00601
3096.02	0.00539
3105.67	0.00514
3115.31	0.00464
3124.95	0.00421
3134.6	0.00404
3144.24	0.00355
3153.89	0.00325
3163.53	0.00306
3173.18	0.00266
3182.82	0.00249
3192.47	0.00218
3202.11	0.00215
3211.76	0.00188
3221.4	0.00142
3231.05	0.00135
3240.69	0.00123
3250.34	0.0011
3259.98	0.0009719
3269.63	0.00106
3279.27	0.00117
3288.92	0.00124
3298.56	0.00154
3308.21	0.00166
3317.85	0.00224
3327.49	0.0027
3337.14	0.00296
3346.78	0.00258
3356.43	0.00173
3366.07	0.00124
3375.72	0.00107
3385.36	0.0009758
3395.01	0.0007384
3404.65	0.000648
3414.3	0.0006438
3423.94	0.0007287
3433.59	0.00046
3443.23	0.0005175
3452.88	0.0005551
3462.52	0.0005027
3472.17	0.0004903
3481.81	0.0003771
3491.46	0.0004229
3501.1	0.0005486
3510.75	0.0003632
3520.39	0.0003189
3530.04	0.0004406
3539.68	0.0005475
3549.32	0.0003955
3558.97	0.0005174
3568.61	0.000468
3578.26	0.0002736
3587.9	0.0005912
3597.55	0.0005111
3607.19	0.0005252
3616.84	0.0003905
3626.48	0.0004159
3636.13	0.0005063
3645.77	0.0005069
3655.42	0.0005865
3665.06	0.0004619
3674.71	0.0002649
3684.35	0.0004144
3694	0.000394
3703.64	0.0004621
3713.29	0.0006045
3722.93	0.0005067
3732.58	0.0005645
3742.22	0.0006152
3751.86	0.0006295
3761.51	0.0005517
3771.15	0.0005273
3780.8	0.000654
3790.44	0.0004168
3800.09	0.0006834
3809.73	0.0004129
3819.38	0.0004461
3829.02	0.0005956
3838.67	0.0006387
3848.31	0.000502
3857.96	0.000807
3867.6	0.0006594
3877.25	0.0009001
3886.89	0.000814
3896.54	0.0008404
3906.18	0.00111
3915.83	0.00102
3925.47	0.00105
3935.12	0.00136
3944.76	0.00132
3954.41	0.00132
3964.05	0.00145
3973.69	0.0014
3983.34	0.00144
3992.98	0.00157
