Infrared Spectrum: 4,4'-Dichlorobenzhydrol
Formula: C 13 H 10 Cl 2 O
CAS: 90-97-1
State: gas
Origin: EPA-IR VAPOR PHASE LIBRARY
1/CM	ABSORBANCE
549.9	0.00746
559.547	0.00573
569.193	0.00334
578.84	0.00291
588.486	0.0025409
598.133	0.0023312
607.779	0.0020464
617.426	0.002294
627.072	0.00324
636.719	0.00318
646.365	0.00312
656.012	0.00318
665.658	0.00373
675.305	0.00539
684.951	0.00571
694.598	0.00379
704.245	0.00322
713.891	0.00331
723.538	0.00416
733.184	0.00412
742.831	0.0038
752.477	0.00428
762.124	0.00529
771.77	0.00869
781.417	0.02246
791.063	0.03223
800.71	0.02636
810.356	0.02964
820.003	0.03712
829.649	0.03095
839.296	0.01937
848.943	0.01665
858.589	0.01454
868.236	0.00839
877.882	0.00578
887.529	0.00441
897.175	0.00366
906.822	0.00313
916.468	0.00312
926.115	0.00335
935.761	0.0035
945.408	0.00385
955.054	0.00388
964.701	0.00399
974.347	0.00448
983.994	0.00572
993.64	0.00898
1003.29	0.02128
1012.93	0.07156
1022.58	0.03495
1032.23	0.0306
1041.87	0.02372
1051.52	0.01326
1061.17	0.00997
1070.81	0.01187
1080.46	0.02758
1090.11	0.08833
1099.75	0.05273
1109.4	0.01768
1119.05	0.00992
1128.69	0.00693
1138.34	0.00603
1147.99	0.00656
1157.63	0.0092
1167.28	0.01531
1176.92	0.0193
1186.57	0.0138
1196.22	0.00985
1205.86	0.00938
1215.51	0.00963
1225.16	0.00967
1234.8	0.00761
1244.45	0.00725
1254.1	0.00804
1263.74	0.00883
1273.39	0.00918
1283.04	0.01073
1292.68	0.01259
1302.33	0.01084
1311.98	0.00944
1321.62	0.00997
1331.27	0.01111
1340.92	0.01171
1350.56	0.01215
1360.21	0.01149
1369.86	0.00993
1379.5	0.00932
1389.15	0.01014
1398.79	0.01245
1408.44	0.01377
1418.09	0.01028
1427.73	0.00689
1437.38	0.00587
1447.03	0.00586
1456.67	0.0072
1466.32	0.01006
1475.97	0.0217
1485.61	0.05585
1495.26	0.06234
1504.91	0.0176
1514.55	0.00652
1524.2	0.00414
1533.85	0.00324
1543.49	0.00293
1553.14	0.00311
1562.79	0.00381
1572.43	0.00534
1582.08	0.00759
1591.73	0.01212
1601.37	0.01187
1611.02	0.00651
1620.67	0.00383
1630.31	0.00309
1639.96	0.0031
1649.6	0.00292
1659.25	0.0026
1668.9	0.0025315
1678.54	0.0023927
1688.19	0.002001
1697.84	0.0016196
1707.48	0.001391
1717.13	0.0015057
1726.78	0.0015021
1736.42	0.00162292
1746.07	0.00167685
1755.72	0.0019023
1765.36	0.0025634
1775.01	0.0038
1784.66	0.00296
1794.3	0.001782
1803.95	0.0014985
1813.6	0.001361
1823.24	0.001365
1832.89	0.001267
1842.54	0.001276
1852.18	0.001338
1861.83	0.0014874
1871.47	0.0018932
1881.12	0.00266
1890.77	0.00358
1900.41	0.00403
1910.06	0.00288
1919.71	0.0020075
1929.35	0.0015346
1939	0.001271
1948.65	0.001227
1958.29	0.001195
1967.94	0.001135
1977.59	0.001156
1987.23	0.001132
1996.88	0.001069
2006.53	0.001102
2016.17	0.001112
2025.82	0.001247
2035.47	0.001263
2045.11	0.001295
2054.76	0.001267
2064.41	0.0012
2074.05	0.00116
2083.7	0.001105
2093.35	0.001082
2102.99	0.001094
2112.64	0.001065
2122.28	0.001085
2131.93	0.001032
2141.58	0.001002
2151.22	0.00105
2160.87	0.001079
2170.52	0.001026
2180.16	0.001037
2189.81	0.001046
2199.46	0.001119
2209.1	0.001139
2218.75	0.001077
2228.4	0.001105
2238.04	0.001123
2247.69	0.001112
2257.34	0.001111
2266.98	0.001217
2276.63	0.001446
2286.28	0.0015239
2295.92	0.001468
2305.57	0.001294
2315.22	0.00127
2324.86	0.001223
2334.51	0.001247
2344.16	0.001182
2353.8	0.001254
2363.45	0.001197
2373.09	0.001149
2382.74	0.001208
2392.39	0.001165
2402.03	0.001214
2411.68	0.001189
2421.33	0.001205
2430.97	0.001167
2440.62	0.001117
2450.27	0.001111
2459.91	0.001155
2469.56	0.001161
2479.21	0.001147
2488.85	0.001181
2498.5	0.001171
2508.15	0.001203
2517.79	0.0012
2527.44	0.001255
2537.09	0.001293
2546.73	0.00129
2556.38	0.001371
2566.03	0.001407
2575.67	0.001364
2585.32	0.001371
2594.96	0.001339
2604.61	0.001303
2614.26	0.001239
2623.9	0.001103
2633.55	0.001065
2643.2	0.001107
2652.84	0.001083
2662.49	0.001184
2672.14	0.00121
2681.78	0.001223
2691.43	0.001189
2701.08	0.001228
2710.72	0.001114
2720.37	0.001108
2730.02	0.000955
2739.66	0.001081
2749.31	0.001104
2758.96	0.001192
2768.6	0.001107
2778.25	0.001159
2787.9	0.001096
2797.54	0.001016
2807.19	0.001194
2816.84	0.001208
2826.48	0.001349
2836.13	0.001475
2845.77	0.0018483
2855.42	0.0025717
2865.07	0.0041
2874.71	0.00644
2884.36	0.00813
2894.01	0.00699
2903.65	0.00469
2913.3	0.00285
2922.95	0.0018398
2932.59	0.001274
2942.24	0.001036
2951.89	0.000991
2961.53	0.001212
2971.18	0.001311
2980.83	0.00160408
2990.47	0.00165126
3000.12	0.0017345
3009.77	0.0020495
3019.41	0.00343
3029.06	0.0068
3038.71	0.00684
3048.35	0.00486
3058	0.00402
3067.64	0.00329
3077.29	0.00457
3086.94	0.00668
3096.58	0.00612
3106.23	0.00358
3115.88	0.00142
3125.52	0.000835
3135.17	0.000632
3144.82	0.00053
3154.46	0.00048
3164.11	0.00038
3173.76	0.0003
3183.4	0.00041
3193.05	0.00021
3202.7	0.00035
3212.34	0.00019
3221.99	0.00013
3231.64	9e-05
3241.28	0.00016
3250.93	5e-05
3260.58	0.00018
3270.22	0.00036
3279.87	0.00015
3289.52	0.00012
3299.16	9e-05
3308.81	0.00017
3318.45	0.00021
3328.1	0.00015
3337.75	0.00023
3347.39	0.00028
3357.04	0.00024
3366.69	0.00044
3376.33	0.00036
3385.98	0.00052
3395.63	0.000583
3405.27	0.00033
3414.92	0.00048
3424.57	0.00045
3434.21	0.00054
3443.86	0.00032
3453.51	0.000606
3463.15	0.000651
3472.8	0.000622
3482.45	0.00043
3492.09	0.00048
3501.74	0.00054
3511.39	0.00044
3521.03	0.00043
3530.68	0.00061
3540.33	0.000679
3549.97	0.00057
3559.62	0.000818
3569.26	0.000581
3578.91	0.000777
3588.56	0.000885
3598.2	0.000799
3607.85	0.001164
3617.5	0.00159949
3627.14	0.00284
3636.79	0.00873
3646.44	0.01411
3656.08	0.00686
3665.73	0.00271
3675.38	0.0018143
3685.02	0.001389
3694.67	0.001079
3704.32	0.001121
3713.96	0.001244
3723.61	0.001129
3733.26	0.001112
3742.9	0.001101
3752.55	0.000932
3762.2	0.00095
3771.84	0.001045
3781.49	0.00106
3791.13	0.000832
3800.78	0.001007
3810.43	0.000897
3820.07	0.00093
3829.72	0.001065
3839.37	0.000979
3849.01	0.001183
3858.66	0.001152
3868.31	0.001176
3877.95	0.001137
3887.6	0.001148
3897.25	0.001145
3906.89	0.001176
3916.54	0.001186
3926.19	0.001165
3935.83	0.000997
3945.48	0.001094
3955.13	0.000838
3964.77	0.000928
3974.42	0.000816
3984.07	0.000844
3993.71	0.000666
