Infrared Spectrum: P,P'-DIMETHOXYBENZOPHENONE
Formula: C15 H14 O3
CAS: 90-96-0
State: SOLID (MINERAL OIL MULL)
Class: COBLENTZ
Instrument: Not specified, most likely a prism, grating, or hybrid spectrometer.
Sampling: TRANSMISSION
Resolution: 4
Origin: DOW CHEMICAL COMPANY
MICROMETERS	TRANSMITTANCE
2.055	0.699
2.09612	0.703
2.13723	0.711
2.17835	0.715
2.21947	0.723
2.26058	0.72
2.3017	0.72
2.34282	0.728
2.38393	0.74
2.42505	0.749
2.46617	0.757
2.50728	0.766
2.5484	0.774
2.58951	0.778
2.63063	0.781
2.67175	0.79
2.71286	0.796
2.75398	0.796
2.7951	0.796
2.83621	0.795
2.87733	0.791
2.91845	0.79
2.95956	0.788
3.00068	0.788
3.0418	0.791
3.08291	0.8
3.12403	0.8
3.16515	0.8
3.20626	0.807
3.24738	0.8
3.2885	0.79
3.32961	0.711
3.37073	0.494
3.41184	0.259
3.45296	0.448
3.49408	0.477
3.53519	0.79
3.57631	0.829
3.61743	0.839
3.65854	0.839
3.69966	0.849
3.74078	0.858
3.78189	0.858
3.82301	0.849
3.86413	0.856
3.90524	0.854
3.94636	0.865
3.98748	0.87
4.02859	0.875
4.06971	0.882
4.11083	0.882
4.15194	0.882
4.19306	0.889
4.23418	0.889
4.27529	0.889
4.31641	0.892
4.35752	0.889
4.39864	0.894
4.43976	0.895
4.48087	0.897
4.52199	0.899
4.56311	0.901
4.60422	0.902
4.64534	0.901
4.68646	0.902
4.72757	0.907
4.76869	0.906
4.80981	0.906
4.85092	0.901
4.89204	0.89
4.93316	0.89
4.97427	0.911
5.01539	0.919
5.05651	0.909
5.09762	0.911
5.13874	0.912
5.17985	0.906
5.22097	0.901
5.26209	0.907
5.3032	0.918
5.34432	0.921
5.38544	0.93
5.42655	0.931
5.46767	0.935
5.50879	0.93
5.5499	0.93
5.59102	0.93
5.63214	0.928
5.67325	0.928
5.71437	0.93
5.75549	0.931
5.7966	0.938
5.83772	0.93
5.87884	0.93
5.91995	0.928
5.96107	0.901
6.00218	0.858
6.0433	0.711
6.08442	0.481
6.12553	0.747
6.16665	0.675
6.20777	0.385
6.24888	0.264
6.29	0.612
6.33112	0.74
6.37223	0.812
6.41335	0.861
6.45447	0.878
6.49558	0.883
6.5367	0.885
6.57782	0.805
6.61893	0.672
6.66005	0.706
6.70117	0.827
6.74228	0.812
6.7834	0.658
6.82452	0.51
6.86563	0.575
6.90675	0.694
6.94786	0.836
6.98898	0.868
7.0301	0.849
7.07121	0.841
7.11233	0.887
7.15345	0.889
7.19456	0.836
7.23568	0.781
7.2768	0.798
7.31791	0.834
7.35903	0.843
7.40015	0.796
7.44126	0.708
7.48238	0.61
7.5235	0.489
7.56461	0.281
7.60573	0.43
7.64685	0.629
7.68796	0.747
7.72908	0.761
7.77019	0.679
7.81131	0.674
7.85243	0.59
7.89354	0.348
7.93466	0.151
7.97578	0.191
8.01689	0.421
8.05801	0.597
8.09913	0.665
8.14024	0.713
8.18136	0.769
8.22248	0.808
8.26359	0.822
8.30471	0.827
8.34583	0.832
8.38694	0.827
8.42806	0.697
8.46918	0.609
8.51029	0.621
8.55141	0.395
8.59253	0.3
8.63364	0.494
8.67476	0.563
8.71587	0.636
8.75699	0.73
8.79811	0.766
8.83922	0.786
8.88034	0.798
8.92146	0.766
8.96257	0.715
9.00369	0.733
9.04481	0.762
9.08592	0.798
9.12704	0.829
9.16816	0.837
9.20927	0.843
9.25039	0.843
9.29151	0.844
9.33262	0.849
9.37374	0.851
9.41486	0.854
9.45597	0.858
9.49709	0.863
9.5382	0.865
9.57932	0.863
9.62044	0.841
9.66155	0.798
9.70267	0.694
9.74379	0.503
9.7849	0.394
9.82602	0.568
9.86714	0.718
9.90825	0.774
9.94937	0.81
9.99049	0.839
10.0316	0.849
10.0727	0.861
10.1138	0.868
10.155	0.868
10.1961	0.87
10.2372	0.861
10.2783	0.849
10.3194	0.825
10.3605	0.819
10.4017	0.854
10.4428	0.822
10.4839	0.721
10.525	0.795
10.5661	0.861
10.6072	0.861
10.6484	0.824
10.6895	0.691
10.7306	0.522
10.7717	0.6
10.8128	0.764
10.8539	0.812
10.895	0.839
10.9362	0.854
10.9773	0.863
11.0184	0.868
11.0595	0.872
11.1006	0.878
11.1417	0.88
11.1829	0.88
11.224	0.882
11.2651	0.885
11.3062	0.889
11.3473	0.889
11.3884	0.889
11.4296	0.89
11.4707	0.889
11.5118	0.889
11.5529	0.887
11.594	0.88
11.6351	0.851
11.6763	0.764
11.7174	0.58
11.7585	0.481
11.7996	0.694
11.8407	0.781
11.8818	0.715
11.923	0.641
11.9641	0.708
12.0052	0.817
12.0463	0.849
12.0874	0.856
12.1285	0.844
12.1697	0.815
12.2108	0.824
12.2519	0.824
12.293	0.798
12.3341	0.779
12.3752	0.723
12.4164	0.767
12.4575	0.858
12.4986	0.87
12.5397	0.872
12.5808	0.877
12.6219	0.877
12.6631	0.868
12.7042	0.858
12.7453	0.858
12.7864	0.861
12.8275	0.861
12.8686	0.805
12.9098	0.674
12.9509	0.527
12.992	0.472
13.0331	0.616
13.0742	0.764
13.1153	0.803
13.1565	0.819
13.1976	0.827
13.2387	0.829
13.2798	0.831
13.3209	0.831
13.362	0.832
13.4032	0.829
13.4443	0.827
13.4854	0.819
13.5265	0.817
13.5676	0.812
13.6087	0.805
13.6499	0.8
13.691	0.788
13.7321	0.783
13.7732	0.781
13.8143	0.781
13.8554	0.781
13.8966	0.778
13.9377	0.778
13.9788	0.778
14.0199	0.771
14.061	0.769
14.1021	0.766
14.1433	0.757
14.1844	0.752
14.2255	0.742
14.2666	0.735
14.3077	0.725
14.3488	0.72
14.39	0.701
14.4311	0.679
14.4722	0.648
14.5133	0.616
14.5544	0.588
14.5955	0.575
14.6367	0.578
14.6778	0.597
14.7189	0.61
14.76	0.624
14.8011	0.629
14.8422	0.627
14.8834	0.622
14.9245	0.621
14.9656	0.619
15.0067	0.614
15.0478	0.604
15.0889	0.598
15.1301	0.592
15.1712	0.581
15.2123	0.569
15.2534	0.559
15.2945	0.54
15.3356	0.527
15.3767	0.508
15.4179	0.498
15.459	0.493
15.5001	0.489
15.5412	0.488
15.5823	0.488
15.6234	0.484
15.6646	0.479
15.7057	0.474
15.7468	0.469
15.7879	0.467
15.829	0.462
15.8701	0.457
