Infrared Spectrum: P-BROMOBENZOPHENONE
Formula: C13 H9 Br O
CAS: 90-90-4
State: SOLUTION (10% CCl4 FOR 5000-1330, 10% CS2 FOR 1330-625 CM^-^1)
Class: COBLENTZ
Instrument: Not specified, most likely a prism, grating, or hybrid spectrometer.
Sampling: TRANSMISSION
Path length: 0.0126 CM, 0.0121 CM
Resolution: 4
Origin: DOW CHEMICAL COMPANY
MICROMETERS	TRANSMITTANCE
2.02	0.888
2.06004	0.888
2.10008	0.88
2.14011	0.885
2.18015	0.89
2.22019	0.881
2.26023	0.881
2.30026	0.886
2.3403	0.881
2.38034	0.888
2.42038	0.873
2.46041	0.895
2.50045	0.891
2.54049	0.896
2.58053	0.888
2.62056	0.895
2.6606	0.888
2.70064	0.886
2.74068	0.883
2.78071	0.876
2.82075	0.871
2.86079	0.87
2.90083	0.868
2.94086	0.866
2.9809	0.846
3.02094	0.871
3.06098	0.868
3.10101	0.87
3.14105	0.868
3.18109	0.86
3.22113	0.798
3.26116	0.745
3.3012	0.82
3.34124	0.878
3.38128	0.88
3.42131	0.883
3.46135	0.87
3.50139	0.888
3.54143	0.891
3.58146	0.888
3.6215	0.883
3.66154	0.888
3.70158	0.896
3.74161	0.896
3.78165	0.886
3.82169	0.885
3.86173	0.878
3.90176	0.881
3.9418	0.888
3.98184	0.893
4.02188	0.893
4.06191	0.891
4.10195	0.878
4.14199	0.886
4.18203	0.89
4.22207	0.881
4.2621	0.87
4.30214	0.873
4.34218	0.865
4.38222	0.88
4.42225	0.888
4.46229	0.888
4.50233	0.893
4.54237	0.896
4.5824	0.898
4.62244	0.898
4.66248	0.898
4.70252	0.898
4.74255	0.898
4.78259	0.898
4.82263	0.893
4.86267	0.89
4.9027	0.89
4.94274	0.881
4.98278	0.885
5.02282	0.873
5.06285	0.866
5.10289	0.868
5.14293	0.876
5.18297	0.84
5.223	0.845
5.26304	0.87
5.30308	0.876
5.34312	0.881
5.38315	0.88
5.42319	0.868
5.46323	0.86
5.50327	0.858
5.5433	0.858
5.58334	0.855
5.62338	0.86
5.66342	0.87
5.70345	0.863
5.74349	0.853
5.78353	0.848
5.82357	0.833
5.8636	0.81
5.90364	0.7
5.94368	0.384
5.98372	0.088
6.02375	0.231
6.06379	0.7
6.10383	0.677
6.14387	0.702
6.18391	0.658
6.22394	0.361
6.26398	0.134
6.30402	0.207
6.34406	0.362
6.38409	0.374
6.42413	0.409
6.46417	0.474
6.50421	0.564
6.54424	0.605
6.58428	0.663
6.62432	0.71
6.66436	0.728
6.70439	0.599
6.74443	0.603
6.78447	0.803
6.82451	0.748
6.86454	0.559
6.90458	0.76
6.94462	0.83
6.98466	0.833
7.02469	0.823
7.06473	0.785
7.10477	0.685
7.14481	0.44
7.18484	0.613
7.22488	0.795
7.26492	0.79
7.30496	0.775
7.34499	0.815
7.38503	0.828
7.42507	0.821
7.46511	0.763
7.50514	0.655
7.54518	0.399
7.58522	0.286
7.62526	0.302
7.66529	0.364
7.70533	0.4
7.74537	0.226
7.78541	0.081
7.82544	0.079
7.86548	0.111
7.90552	0.376
7.94556	0.529
7.98559	0.572
8.02563	0.638
8.06567	0.715
8.10571	0.763
8.14574	0.798
8.18578	0.816
8.22582	0.816
8.26586	0.805
8.3059	0.801
8.34593	0.793
8.38597	0.763
8.42601	0.698
8.46605	0.524
8.50608	0.497
8.54612	0.695
8.58616	0.732
8.6262	0.73
8.66623	0.66
8.70627	0.655
8.74631	0.745
8.78635	0.77
8.82638	0.778
8.86642	0.79
8.90646	0.795
8.9465	0.788
8.98653	0.753
9.02657	0.71
9.06661	0.712
9.10665	0.75
9.14668	0.763
9.18672	0.768
9.22676	0.753
9.2668	0.683
9.30683	0.469
9.34687	0.232
9.38691	0.479
9.42695	0.715
9.46698	0.773
9.50702	0.797
9.54706	0.816
9.5871	0.815
9.62713	0.81
9.66717	0.778
9.70721	0.715
9.74725	0.75
9.78728	0.77
9.82732	0.579
9.86736	0.326
9.9074	0.655
9.94743	0.673
9.98747	0.648
10.0275	0.8
10.0675	0.81
10.1076	0.806
10.1476	0.818
10.1877	0.825
10.2277	0.813
10.2677	0.782
10.3078	0.747
10.3478	0.735
10.3878	0.768
10.4279	0.735
10.4679	0.653
10.508	0.653
10.548	0.687
10.588	0.585
10.6281	0.414
10.6681	0.222
10.7081	0.276
10.7482	0.42
10.7882	0.386
10.8283	0.251
10.8683	0.149
10.9083	0.199
10.9484	0.447
10.9884	0.617
11.0284	0.71
11.0685	0.763
11.1085	0.778
11.1486	0.787
11.1886	0.788
11.2286	0.787
11.2687	0.777
11.3087	0.762
11.3487	0.752
11.3888	0.74
11.4288	0.727
11.4689	0.71
11.5089	0.698
11.5489	0.687
11.589	0.67
11.629	0.652
11.669	0.638
11.7091	0.617
11.7491	0.572
11.7892	0.522
11.8292	0.417
11.8692	0.246
11.9093	0.211
11.9493	0.457
11.9893	0.597
12.0294	0.667
12.0694	0.7
12.1095	0.75
12.1495	0.777
12.1895	0.79
12.2296	0.8
12.2696	0.803
12.3096	0.801
12.3497	0.805
12.3897	0.808
12.4298	0.808
12.4698	0.8
12.5098	0.785
12.5499	0.76
12.5899	0.713
12.63	0.613
12.67	0.449
12.71	0.376
12.7501	0.497
12.7901	0.647
12.8301	0.728
12.8702	0.767
12.9102	0.777
12.9503	0.787
12.9903	0.793
13.0303	0.795
13.0704	0.79
13.1104	0.788
13.1504	0.777
13.1905	0.767
13.2305	0.755
13.2706	0.745
13.3106	0.733
13.3506	0.713
13.3907	0.69
13.4307	0.642
13.4707	0.519
13.5108	0.392
13.5508	0.366
13.5909	0.464
13.6309	0.489
13.6709	0.41
13.711	0.249
13.751	0.099
13.791	0.038
13.8311	0.111
13.8711	0.301
13.9112	0.487
13.9512	0.567
13.9912	0.595
14.0313	0.6
14.0713	0.582
14.1113	0.542
14.1514	0.482
14.1914	0.397
14.2315	0.274
14.2715	0.163
14.3115	0.083
14.3516	0.069
14.3916	0.144
14.4316	0.271
14.4717	0.4
14.5117	0.462
14.5518	0.484
14.5918	0.487
14.6318	0.482
14.6719	0.482
14.7119	0.497
14.7519	0.514
14.792	0.522
14.832	0.527
14.8721	0.527
14.9121	0.525
14.9521	0.519
14.9922	0.51
15.0322	0.49
15.0722	0.469
15.1123	0.434
15.1523	0.382
15.1924	0.309
15.2324	0.229
15.2724	0.186
15.3125	0.186
15.3525	0.239
15.3925	0.309
15.4326	0.376
15.4726	0.392
15.5127	0.409
15.5527	0.412
15.5927	0.412
15.6328	0.409
15.6728	0.405
15.7128	0.397
15.7529	0.389
15.7929	0.382
15.833	0.374
