Infrared Spectrum: 3,3,3-Triphenylpropionic acid
Formula: C 21 H 18 O 2
CAS: 900-91-4
State: gas
Origin: EPA-IR VAPOR PHASE LIBRARY
1/CM	ABSORBANCE
549.8	0.001343
559.445	0.001293
569.09	0.002013
578.734	0.003073
588.379	0.005233
598.024	0.010833
607.669	0.021703
617.313	0.009203
626.958	0.004213
636.603	0.002953
646.248	0.002383
655.893	0.001933
665.537	0.002593
675.182	0.004263
684.827	0.007243
694.472	0.016273
704.116	0.017613
713.761	0.007083
723.406	0.003743
733.051	0.003013
742.695	0.005013
752.34	0.006003
761.985	0.003623
771.63	0.002663
781.275	0.001673
790.919	0.0008649
800.564	0.0008884
810.209	0.0011167
819.854	0.001643
829.498	0.001273
839.143	0.001373
848.788	0.0010876
858.433	0.0008501
868.078	0.0007505
877.722	0.0009418
887.367	0.0007573
897.012	0.001243
906.657	0.001383
916.301	0.001453
925.946	0.001433
935.591	0.0010127
945.236	0.0009674
954.88	0.0009513
964.525	0.001283
974.17	0.001293
983.815	0.001933
993.46	0.002003
1003.1	0.002413
1012.75	0.001853
1022.39	0.002283
1032.04	0.003743
1041.68	0.003763
1051.33	0.002003
1060.97	0.002053
1070.62	0.003583
1080.26	0.005703
1089.91	0.007643
1099.55	0.012363
1109.2	0.018913
1118.84	0.018773
1128.49	0.011663
1138.13	0.007873
1147.78	0.005123
1157.42	0.004783
1167.07	0.004453
1176.71	0.005423
1186.36	0.005573
1196	0.005083
1205.64	0.003283
1215.29	0.001793
1224.93	0.001753
1234.58	0.001883
1244.22	0.001923
1253.87	0.001833
1263.51	0.001973
1273.16	0.002243
1282.8	0.001923
1292.45	0.001743
1302.09	0.002033
1311.74	0.002133
1321.38	0.002183
1331.03	0.002293
1340.67	0.002643
1350.32	0.003443
1359.96	0.004903
1369.61	0.005783
1379.25	0.003953
1388.9	0.002133
1398.54	0.001493
1408.18	0.001413
1417.83	0.001793
1427.47	0.003043
1437.12	0.004313
1446.76	0.005363
1456.41	0.002833
1466.05	0.001873
1475.7	0.002243
1485.34	0.004443
1494.99	0.008253
1504.63	0.004923
1514.28	0.001503
1523.92	0.0008277
1533.57	0.0008257
1543.21	0.0008667
1552.86	0.0007536
1562.5	0.0007748
1572.15	0.0009503
1581.79	0.001853
1591.44	0.003133
1601.08	0.003513
1610.73	0.001733
1620.37	0.0008291
1630.01	0.0005958
1639.66	0.0004398
1649.3	0.0005939
1658.95	0.0007371
1668.59	0.0008644
1678.24	0.0007817
1687.88	0.0009457
1697.53	0.0010904
1707.17	0.001323
1716.82	0.001993
1726.46	0.002753
1736.11	0.004213
1745.75	0.006863
1755.4	0.011553
1765.04	0.016243
1774.69	0.020573
1784.33	0.016103
1793.98	0.009003
1803.62	0.005673
1813.27	0.003303
1822.91	0.002063
1832.55	0.001303
1842.2	0.0010356
1851.84	0.0008795
1861.49	0.0009468
1871.13	0.0010786
1880.78	0.001243
1890.42	0.001056
1900.07	0.0008139
1909.71	0.0007082
1919.36	0.0006475
1929	0.000831
1938.65	0.0011458
1948.29	0.001433
1957.94	0.001233
1967.58	0.0007334
1977.23	0.0004711
1986.87	0.0004821
1996.52	0.0004615
2006.16	0.0003818
2015.81	0.0003824
2025.45	0.0004154
2035.1	0.00028662
2044.74	0.000341
2054.38	0.0004284
2064.03	0.0003812
2073.67	0.000339
2083.32	0.0003224
2092.96	0.0003146
2102.61	0.00026357
2112.25	0.0003548
2121.9	0.0004286
2131.54	0.0004225
2141.19	0.0003646
2150.83	0.0003592
2160.48	0.0004533
2170.12	0.0003626
2179.77	0.0003278
2189.41	0.0004085
2199.06	0.0004007
2208.7	0.0003583
2218.35	0.00028741
2227.99	0.0003459
2237.64	0.0003765
2247.28	0.0003464
2256.92	0.000357
2266.57	0.00026482
2276.21	0.0003809
2285.86	0.0004269
2295.5	0.000448
2305.15	0.0003704
2314.79	0.0005723
2324.44	0.000336
2334.08	0.0003221
2343.73	0.0004327
2353.37	0.0004043
2363.02	0.0004064
2372.66	0.0003987
2382.31	0.0003627
2391.95	0.0003112
2401.6	0.0004524
2411.24	0.000233
2420.89	0.0003363
2430.53	0.0003056
2440.18	0.0003582
2449.82	0.0003308
2459.47	0.0003161
2469.11	0.0003645
2478.75	0.00029799
2488.4	0.00026605
2498.04	0.00024505
2507.69	0.0003437
2517.33	0.0004193
2526.98	0.00029536
2536.62	0.0003342
2546.27	0.0003097
2555.91	0.0003353
2565.56	0.00022455
2575.2	0.0004252
2584.85	0.0003828
2594.49	0.0003684
2604.14	0.0004172
2613.78	0.0003602
2623.43	0.0003078
2633.07	0.0003476
2642.72	0.0003886
2652.36	0.00024229
2662.01	0.0003463
2671.65	0.0003223
2681.29	0.0003393
2690.94	0.0002843
2700.58	0.0002509
2710.23	0.00028526
2719.87	0.0003981
2729.52	0.000493
2739.16	0.0004318
2748.81	0.0004547
2758.45	0.0003797
2768.1	0.0004616
2777.74	0.0003141
2787.39	0.0004499
2797.03	0.00023334
2806.68	0.0003893
2816.32	0.00022759
2825.97	0.0003806
2835.61	0.00036
2845.26	0.0003992
2854.9	0.0003979
2864.55	0.0006155
2874.19	0.0005352
2883.84	0.0004905
2893.48	0.0005659
2903.12	0.0005223
2912.77	0.0005987
2922.41	0.0008371
2932.06	0.0008939
2941.7	0.001223
2951.35	0.0011721
2960.99	0.0010708
2970.64	0.0010103
2980.28	0.0011865
2989.93	0.0011613
2999.57	0.001263
3009.22	0.001783
3018.86	0.003153
3028.51	0.005163
3038.15	0.006473
3047.8	0.005213
3057.44	0.007863
3067.09	0.014133
3076.73	0.008643
3086.38	0.005653
3096.02	0.004983
3105.67	0.002953
3115.31	0.001723
3124.95	0.0009633
3134.6	0.0007857
3144.24	0.0007092
3153.89	0.0006469
3163.53	0.0007167
3173.18	0.0004908
3182.82	0.0004765
3192.47	0.0004252
3202.11	0.0003114
3211.76	0.0001251
3221.4	0.00024985
3231.05	0.0001196
3240.69	0.00022038
3250.34	0.00026059
3259.98	0.00027205
3269.63	0.0001779
3279.27	0.00028732
3288.92	0.00024653
3298.56	0.0003501
3308.21	0.0001858
3317.85	0.0001522
3327.49	0.0001382
3337.14	8.3e-05
3346.78	0.00021417
3356.43	0.0003038
3366.07	0.00023214
3375.72	0.0004383
3385.36	0.00027741
3395.01	0.0003443
3404.65	0.00028716
3414.3	0.0003452
3423.94	0.0003468
3433.59	0.000203024
3443.23	0.0001851
3452.88	0.0003546
3462.52	0.0003509
3472.17	0.00028443
3481.81	0.000467
3491.46	0.0004107
3501.1	0.0005446
3510.75	0.0010183
3520.39	0.001178
3530.04	0.0010063
3539.68	0.0008452
3549.32	0.001153
3558.97	0.003673
3568.61	0.013543
3578.26	0.005033
3587.9	0.001213
3597.55	0.0007891
3607.19	0.0004519
3616.84	0.0004486
3626.48	0.0002951
3636.13	0.0003113
3645.77	0.00023872
3655.42	0.000212375
3665.06	0.0003652
3674.71	0.0004335
3684.35	0.0004179
3694	0.00025932
3703.64	0.0003182
3713.29	0.00026185
3722.93	0.000383
3732.58	0.0004511
3742.22	0.0003109
3751.86	0.00022963
3761.51	0.0003441
3771.15	0.0003032
3780.8	0.00020082
3790.44	0.0002421
3800.09	0.00021433
3809.73	0.0003381
3819.38	0.00028144
3829.02	0.00021384
3838.67	0.00026587
3848.31	0.00026187
3857.96	0.0001523
3867.6	0.00020079
3877.25	6.9e-05
3886.89	0.0004399
3896.54	0.00024886
3906.18	0.0004569
3915.83	0.00027616
3925.47	0.0001301
3935.12	0.0003891
3944.76	0.00023896
3954.41	0.0003148
3964.05	5.6e-05
3973.69	0.000209331
3983.34	0.00019605
3992.98	0.0003913
