Infrared Spectrum: TRIPHENYL TIN ACETATE
Formula: C20 H18 O2 Sn
CAS: 900-95-8
State: SOLID (MINERAL OIL MULL)
Class: COBLENTZ
Instrument: Not specified, most likely a prism, grating, or hybrid spectrometer.
Sampling: TRANSMISSION
Resolution: 4
Origin: WYANDOTTE CHEMICALS CORP., WYANDOTTE, MICHIGAN, USA
MICROMETERS	TRANSMITTANCE
2.012	0.479
2.04915	0.484
2.0863	0.498
2.12346	0.506
2.16061	0.515
2.19776	0.517
2.23491	0.52
2.27206	0.531
2.30922	0.545
2.34637	0.551
2.38352	0.557
2.42067	0.57
2.45782	0.58
2.49498	0.588
2.53213	0.602
2.56928	0.624
2.60643	0.623
2.64358	0.638
2.68073	0.647
2.71789	0.644
2.75504	0.605
2.79219	0.605
2.82934	0.623
2.86649	0.629
2.90365	0.627
2.9408	0.629
2.97795	0.637
3.0151	0.638
3.05225	0.643
3.08941	0.644
3.12656	0.641
3.16371	0.618
3.20086	0.602
3.23801	0.552
3.27517	0.348
3.31232	0.356
3.34947	0.104
3.38662	0.045
3.42377	0.042
3.46093	0.087
3.49808	0.099
3.53523	0.479
3.57238	0.702
3.60953	0.75
3.64668	0.764
3.68384	0.757
3.72099	0.772
3.75814	0.775
3.79529	0.789
3.83244	0.802
3.8696	0.809
3.90675	0.823
3.9439	0.839
3.98105	0.847
4.0182	0.848
4.05536	0.85
4.09251	0.848
4.12966	0.853
4.16681	0.866
4.20396	0.869
4.24112	0.861
4.27827	0.866
4.31542	0.881
4.35257	0.9
4.38972	0.919
4.42688	0.914
4.46403	0.917
4.50118	0.92
4.53833	0.923
4.57548	0.931
4.61263	0.934
4.64979	0.937
4.68694	0.942
4.72409	0.94
4.76124	0.945
4.79839	0.951
4.83555	0.953
4.8727	0.957
4.90985	0.962
4.947	0.967
4.98415	0.968
5.02131	0.968
5.05846	0.968
5.09561	0.967
5.13276	0.929
5.16991	0.922
5.20707	0.953
5.24422	0.973
5.28137	0.959
5.31852	0.929
5.35567	0.929
5.39283	0.954
5.42998	0.973
5.46713	0.968
5.50428	0.943
5.54143	0.94
5.57858	0.97
5.61574	0.99
5.65289	0.962
5.69004	0.971
5.72719	0.97
5.76434	0.976
5.8015	0.968
5.83865	0.959
5.8758	0.956
5.91295	0.923
5.9501	0.922
5.98726	0.911
6.02441	0.88
6.06156	0.839
6.09871	0.823
6.13586	0.781
6.17302	0.721
6.21017	0.661
6.24732	0.481
6.28447	0.288
6.32162	0.403
6.35878	0.286
6.39593	0.085
6.43308	0.065
6.47023	0.068
6.50738	0.151
6.54453	0.299
6.58169	0.38
6.61884	0.471
6.65599	0.529
6.69314	0.408
6.73029	0.303
6.76745	0.266
6.8046	0.218
6.84175	0.233
6.8789	0.222
6.91605	0.211
6.95321	0.105
6.99036	0.188
7.02751	0.278
7.06466	0.252
7.10181	0.278
7.13897	0.39
7.17612	0.451
7.21327	0.38
7.25042	0.375
7.28757	0.523
7.32473	0.626
7.36188	0.669
7.39903	0.63
7.43618	0.64
7.47333	0.63
7.51048	0.733
7.54764	0.775
7.58479	0.763
7.62194	0.719
7.65909	0.736
7.69624	0.789
7.7334	0.828
7.77055	0.853
7.8077	0.855
7.84485	0.858
7.882	0.831
7.91916	0.767
7.95631	0.836
7.99346	0.87
8.03061	0.881
8.06776	0.886
8.10492	0.892
8.14207	0.898
8.17922	0.897
8.21637	0.889
8.25352	0.886
8.29068	0.9
8.32783	0.886
8.36498	0.853
8.40213	0.864
8.43928	0.892
8.47644	0.912
8.51359	0.922
8.55074	0.922
8.58789	0.919
8.62504	0.864
8.66219	0.889
8.69935	0.931
8.7365	0.948
8.77365	0.954
8.8108	0.951
8.84795	0.939
8.88511	0.923
8.92226	0.904
8.95941	0.887
8.99656	0.862
9.03371	0.845
9.07087	0.834
9.10802	0.822
9.14517	0.811
9.18232	0.795
9.21947	0.552
9.25663	0.369
9.29378	0.56
9.33093	0.7
9.36808	0.693
9.40523	0.746
9.44239	0.771
9.47954	0.778
9.51669	0.777
9.55384	0.761
9.59099	0.769
9.62814	0.778
9.6653	0.766
9.70245	0.697
9.7396	0.481
9.77675	0.571
9.8139	0.697
9.85106	0.763
9.88821	0.799
9.92536	0.822
9.96251	0.803
9.99966	0.601
10.0368	0.772
10.074	0.811
10.1111	0.83
10.1483	0.85
10.1854	0.861
10.2226	0.862
10.2597	0.855
10.2969	0.869
10.334	0.878
10.3712	0.88
10.4083	0.883
10.4455	0.89
10.4826	0.892
10.5198	0.883
10.5569	0.866
10.5941	0.844
10.6312	0.789
10.6684	0.741
10.7056	0.616
10.7427	0.478
10.7799	0.433
10.817	0.587
10.8542	0.683
10.8913	0.733
10.9285	0.774
10.9656	0.736
11.0028	0.742
11.0399	0.769
11.0771	0.866
11.1142	0.912
11.1514	0.919
11.1885	0.922
11.2257	0.934
11.2628	0.937
11.3	0.942
11.3371	0.951
11.3743	0.961
11.4114	0.964
11.4486	0.967
11.4857	0.968
11.5229	0.964
11.56	0.964
11.5972	0.964
11.6343	0.967
11.6715	0.954
11.7087	0.922
11.7458	0.898
11.783	0.903
11.8201	0.934
11.8573	0.945
11.8944	0.942
11.9316	0.953
11.9687	0.97
12.0059	0.975
12.043	0.973
12.0802	0.973
12.1173	0.973
12.1545	0.976
12.1916	0.982
12.2288	0.987
12.2659	0.987
12.3031	0.987
12.3402	0.99
12.3774	0.99
12.4145	0.99
12.4517	0.99
12.4888	0.99
12.526	0.99
12.5631	0.987
12.6003	0.987
12.6375	0.982
12.6746	0.978
12.7118	0.968
12.7489	0.964
12.7861	0.964
12.8232	0.959
12.8604	0.957
12.8975	0.948
12.9347	0.945
12.9718	0.943
13.009	0.939
13.0461	0.939
13.0833	0.94
13.1204	0.937
13.1576	0.937
13.1947	0.934
13.2319	0.933
13.269	0.926
13.3062	0.919
13.3433	0.911
13.3805	0.898
13.4176	0.866
13.4548	0.817
13.4919	0.722
13.5291	0.529
13.5662	0.341
13.6034	0.232
13.6406	0.183
13.6777	0.137
13.7149	0.107
13.752	0.166
13.7892	0.302
13.8263	0.364
13.8635	0.384
13.9006	0.552
13.9378	0.704
13.9749	0.781
14.0121	0.82
14.0492	0.827
14.0864	0.814
14.1235	0.781
14.1607	0.704
14.1978	0.605
14.235	0.504
14.2721	0.401
14.3093	0.294
14.3464	0.196
14.3836	0.146
14.4207	0.135
14.4579	0.154
14.495	0.241
14.5322	0.381
14.5694	0.535
14.6065	0.651
14.6437	0.713
14.6808	0.757
14.718	0.78
14.7551	0.789
14.7923	0.785
14.8294	0.774
14.8666	0.755
14.9037	0.728
14.9409	0.705
14.978	0.671
15.0152	0.618
15.0523	0.557
15.0895	0.504
15.1266	0.493
15.1638	0.506
15.2009	0.54
15.2381	0.577
15.2752	0.624
15.3124	0.665
15.3495	0.705
15.3867	0.718
15.4238	0.739
15.461	0.746
15.4981	0.75
15.5353	0.746
15.5725	0.736
15.6096	0.728
15.6468	0.727
15.6839	0.719
15.7211	0.71
15.7582	0.696
15.7954	0.68
15.8325	0.677
15.8697	0.669
15.9068	0.657
15.944	0.643
15.9811	0.637
