Infrared Spectrum: 3,5-Diamino-2-methylbenzoic acid
Formula: C 8 H 10 N 2 O 2
CAS: 90007-30-0
State: gas
Origin: EPA-IR VAPOR PHASE LIBRARY
1/CM	ABSORBANCE
501.5	0.0011185
513.074	0.0010642
524.648	0.001129
536.222	0.0011035
547.796	0.001244
559.37	0.001534
570.944	0.001764
582.518	0.001914
594.092	0.002204
605.666	0.001804
617.24	0.001484
628.814	0.001424
640.388	0.001634
651.962	0.002254
663.536	0.003164
675.11	0.002824
686.684	0.001604
698.258	0.0011243
709.832	0.0010414
721.406	0.0009315
732.98	0.0008436
744.554	0.0007931
756.128	0.000876
767.702	0.0009601
779.276	0.001234
790.85	0.001324
802.423	0.0010603
813.997	0.0009073
825.571	0.0010207
837.145	0.001284
848.719	0.0009931
860.293	0.0007415
871.867	0.0005734
883.441	0.0004764
895.015	0.0004881
906.589	0.0004039
918.163	0.0004144
929.737	0.0003851
941.311	0.0004143
952.885	0.0004185
964.459	0.0004743
976.033	0.0006467
987.607	0.000651
999.181	0.0006525
1010.76	0.000944
1022.33	0.001884
1033.9	0.002124
1045.48	0.001264
1057.05	0.0009563
1068.63	0.0009816
1080.2	0.0009923
1091.77	0.0012016
1103.35	0.001604
1114.92	0.001694
1126.49	0.002284
1138.07	0.003834
1149.64	0.004614
1161.22	0.003904
1172.79	0.003584
1184.36	0.002494
1195.94	0.001754
1207.51	0.001354
1219.09	0.0008162
1230.66	0.0008758
1242.23	0.001234
1253.81	0.0011395
1265.38	0.0008502
1276.96	0.0008125
1288.53	0.0008949
1300.1	0.001049
1311.68	0.0011241
1323.25	0.0011306
1334.83	0.001664
1346.4	0.002734
1357.97	0.002994
1369.55	0.002114
1381.12	0.001364
1392.7	0.0011751
1404.27	0.0007265
1415.84	0.0005535
1427.42	0.0006599
1438.99	0.0008829
1450.57	0.0010036
1462.14	0.0009727
1473.71	0.0009334
1485.29	0.001344
1496.86	0.001354
1508.44	0.0006484
1520.01	0.0004158
1531.58	0.0004228
1543.16	0.0004139
1554.73	0.0005498
1566.31	0.0008306
1577.88	0.0012042
1589.45	0.001644
1601.03	0.002054
1612.6	0.003454
1624.18	0.005464
1635.75	0.004674
1647.32	0.002074
1658.9	0.0009676
1670.47	0.0006728
1682.05	0.0005652
1693.62	0.000557
1705.19	0.0007036
1716.77	0.0010308
1728.34	0.001604
1739.92	0.003544
1751.49	0.007554
1763.06	0.005144
1774.64	0.002004
1786.21	0.001694
1797.79	0.001105
1809.36	0.0006237
1820.93	0.0003968
1832.51	0.0003176
1844.08	0.00026748
1855.66	0.00023318
1867.23	0.00020901
1878.8	0.000198
1890.38	0.0001966
1901.95	0.0001798
1913.53	0.0002033
1925.1	0.0001797
1936.67	0.0001816
1948.25	0.0001643
1959.82	0.0001811
1971.4	0.0001718
1982.97	0.0001688
1994.54	0.0001526
2006.12	0.0001937
2017.69	0.0001769
2029.27	0.0001907
2040.84	0.0001582
2052.41	0.0001954
2063.99	0.0001735
2075.56	0.0001972
2087.14	0.0001768
2098.71	0.0001701
2110.28	0.0001492
2121.86	0.0001566
2133.43	0.0001527
2145.01	0.00015
2156.58	0.0001591
2168.15	0.0001616
2179.73	0.0001358
2191.3	0.0001532
2202.88	0.0001328
2214.45	0.0001212
2226.02	0.0001678
2237.6	0.0001316
2249.17	0.000146
2260.74	0.0001794
2272.32	0.000141
2283.89	0.0001619
2295.47	0.0001448
2307.04	0.0001331
2318.61	0.0001165
2330.19	0.000109
2341.76	0.0001399
2353.34	0.000103
2364.91	9.7e-05
2376.48	0.000112
2388.06	9.8e-05
2399.63	0.0001348
2411.21	0.0001209
2422.78	0.0001371
2434.35	0.0001479
2445.93	0.0001506
2457.5	0.0001436
2469.08	9.3e-05
2480.65	0.0001329
2492.22	0.0001354
2503.8	0.0001424
2515.37	0.0001573
2526.95	0.0001278
2538.52	0.000127
2550.09	0.0001299
2561.67	0.000104
2573.24	9.5e-05
2584.82	0.0001249
2596.39	0.0001552
2607.96	0.0001
2619.54	0.0001233
2631.11	0.0001948
2642.69	0.0001553
2654.26	9.6e-05
2665.83	0.0001364
2677.41	0.0001271
2688.98	0.000111
2700.56	0.0001767
2712.13	0.000108
2723.7	0.0001298
2735.28	0.0001362
2746.85	0.0001519
2758.43	0.0001312
2770	0.0001582
2781.57	0.0001268
2793.15	0.000114
2804.72	0.0001392
2816.3	0.0001418
2827.87	0.0001637
2839.44	0.0001851
2851.02	0.000214843
2862.59	0.0003401
2874.17	0.0004665
2885.74	0.0005353
2897.31	0.0004443
2908.89	0.0004498
2920.46	0.000534
2932.04	0.0005827
2943.61	0.0005708
2955.18	0.0003603
2966.76	0.00027306
2978.33	0.00025403
2989.91	0.00025065
3001.48	0.0003776
3013.05	0.0005517
3024.63	0.0005119
3036.2	0.0004063
3047.78	0.0003562
3059.35	0.00023964
3070.92	0.000221463
3082.5	0.000215389
3094.07	0.0001908
3105.65	0.000162
3117.22	0.0001258
3128.79	0.0001211
3140.37	0.0001168
3151.94	8.8e-05
3163.52	7.6e-05
3175.09	0.00011
3186.66	8.1e-05
3198.24	0.0001352
3209.81	0.0001376
3221.39	0.0001469
3232.96	0.000108
3244.53	0.000106
3256.11	0.0001499
3267.68	0.0001816
3279.26	0.0001424
3290.83	8e-05
3302.4	8.4e-05
3313.98	0.0001222
3325.55	7e-05
3337.13	7.1e-05
3348.7	3.9e-05
3360.27	7.9e-05
3371.85	0.000104
3383.42	0.0001512
3395	0.00030202
3406.57	0.0006065
3418.14	0.0006392
3429.72	0.0004301
3441.29	0.0001979
3452.86	0.00022692
3464.44	0.00024118
3476.01	0.00030807
3487.59	0.000576
3499.16	0.0006741
3510.73	0.000491
3522.31	0.0003313
3533.88	0.00028784
3545.46	0.0003223
3557.03	0.0007796
3568.6	0.001884
3580.18	0.001994
3591.75	0.0008005
3603.33	0.0002916
3614.9	0.0001511
3626.47	0.0001452
3638.05	0.000215414
3649.62	0.0001867
3661.2	0.000105
3672.77	0.000112
3684.34	0.000193
3695.92	0.0001913
3707.49	0.0001991
3719.07	0.0001465
3730.64	0.0001313
3742.21	9.8e-05
3753.79	9.4e-05
3765.36	0.0001153
3776.94	0.0001376
3788.51	0.000103
3800.08	9.2e-05
3811.66	0.0001989
3823.23	0.000112
3834.81	0.000112
3846.38	0.0002017
3857.95	9.8e-05
3869.53	7.8e-05
3881.1	6.8e-05
3892.68	0.000221772
3904.25	7.1e-05
3915.82	0.000215736
3927.4	0.0001805
3938.97	0.000222079
3950.55	0.0001499
3962.12	0.0001396
3973.69	0.0001333
3985.27	0.00026132
3996.84	0.00022791
