Infrared Spectrum: Acetophenone, 2'-bromo-4'-nitro-
Formula: C8 H6 Br N O3
CAS: 90004-93-6
State: SOLID (SPLIT MULL), FLUOROLUBE FOR 3800-1330 CM^-^1, NUJOL FOR 1330-400 CM^-^1
Class: COBLENTZ III
Instrument: BECKMAN IR-9 (GRATING)
Instrument parameters: ORDER CHANGES: 670, 1200, 2000 CM^-^1
Sampling: TRANSMISSION
Resolution: 2
Origin: DOW CHEMICAL COMPANY
1/CM	TRANSMITTANCE
401	0.6493
410	0.6348
419	0.6289
428	0.6301
437	0.6412
446	0.677
455	0.7169
464	0.7536
473	0.7836
482	0.7947
491	0.7959
500	0.7615
509	0.7447
518	0.8031
527	0.8193
536	0.793
545	0.8091
554	0.7666
563	0.8347
572	0.8434
581	0.8444
590	0.8412
599	0.838
608	0.8362
617	0.8363
626	0.825
635	0.8222
644	0.8064
653	0.5808
662	0.8125
671	0.8371
680	0.8258
689	0.69
698	0.8129
707	0.7922
716	0.5895
725	0.5659
734	0.7205
743	0.5449
752	0.7576
761	0.7854
770	0.7835
779	0.7252
788	0.7898
797	0.8064
806	0.7921
815	0.7969
824	0.7731
833	0.6405
842	0.5196
851	0.5073
860	0.6742
869	0.778
878	0.7878
887	0.7856
896	0.7644
905	0.7746
914	0.7756
923	0.7698
932	0.7628
941	0.7535
950	0.7393
959	0.7181
968	0.6921
977	0.6825
986	0.6508
995	0.5472
1004	0.6392
1013	0.7538
1022	0.7655
1031	0.764
1040	0.7625
1049	0.7564
1058	0.7485
1067	0.7381
1076	0.7258
1085	0.714
1094	0.7076
1103	0.683
1112	0.66
1121	0.6889
1130	0.6811
1139	0.6685
1148	0.6325
1157	0.633
1166	0.6166
1175	0.5735
1184	0.4788
1193	0.2854
1202	0.5484
1211	0.706
1220	0.7107
1229	0.7029
1238	0.6852
1247	0.6601
1256	0.6163
1265	0.5725
1274	0.4999
1283	0.4959
1292	0.5572
1301	0.5306
1310	0.459
1319	0.3307
1328	0.5193
1337	0.3605
1346	0.1582
1355	0.5512
1364	0.6432
1373	0.6764
1382	0.6666
1391	0.6719
1400	0.6096
1409	0.7078
1418	0.8243
1427	0.8126
1436	0.7977
1445	0.7827
1454	0.7659
1463	0.7486
1472	0.7244
1481	0.6722
1490	0.6145
1499	0.5589
1508	0.4249
1517	0.1573
1526	0.2342
1535	0.7951
1544	0.8476
1553	0.8474
1562	0.8297
1571	0.8132
1580	0.7873
1589	0.7167
1598	0.4893
1607	0.7968
1616	0.8231
1625	0.8149
1634	0.8061
1643	0.794
1652	0.7709
1661	0.7389
1670	0.7179
1679	0.6857
1688	0.5841
1697	0.3204
1706	0.2624
1715	0.75
1724	0.8331
1733	0.8376
1742	0.8391
1751	0.8354
1760	0.8287
1769	0.8217
1778	0.8146
1787	0.8075
1796	0.8028
1805	0.7999
1814	0.7976
1823	0.7972
1832	0.7965
1841	0.7954
1850	0.7919
1859	0.787
1868	0.7812
1877	0.7756
1886	0.7707
1895	0.7664
1904	0.7622
1913	0.7578
1922	0.7516
1931	0.7475
1940	0.7495
1949	0.7465
1958	0.7455
1967	0.7468
1976	0.7459
1985	0.7416
1994	0.7393
2003	0.7397
2012	0.7405
2021	0.7402
2030	0.7386
2039	0.7361
2048	0.7329
2057	0.73
2066	0.7271
2075	0.7239
2084	0.7205
2093	0.717
2102	0.7133
2111	0.7097
2120	0.706
2129	0.7022
2138	0.6986
2147	0.6951
2156	0.6916
2165	0.6872
2174	0.6829
2183	0.6785
2192	0.6749
2201	0.6712
2210	0.6672
2219	0.6625
2228	0.6578
2237	0.6532
2246	0.6488
2255	0.6444
2264	0.64
2273	0.6355
2282	0.631
2291	0.627
2300	0.6252
2309	0.6246
2318	0.6245
2327	0.6243
2336	0.6239
2345	0.6216
2354	0.6195
2363	0.6177
2372	0.616
2381	0.6143
2390	0.6124
2399	0.6103
2408	0.6082
2417	0.6061
2426	0.6043
2435	0.6029
2444	0.6015
2453	0.6001
2462	0.5986
2471	0.5971
2480	0.5956
2489	0.594
2498	0.5925
2507	0.591
2516	0.5893
2525	0.5876
2534	0.5859
2543	0.5842
2552	0.5824
2561	0.5805
2570	0.5787
2579	0.5769
2588	0.5752
2597	0.5734
2606	0.5717
2615	0.57
2624	0.5682
2633	0.5661
2642	0.5638
2651	0.5614
2660	0.5591
2669	0.5567
2678	0.5544
2687	0.5517
2696	0.5489
2705	0.5462
2714	0.5435
2723	0.5407
2732	0.538
2741	0.5353
2750	0.5326
2759	0.5299
2768	0.5272
2777	0.5244
2786	0.5215
2795	0.5185
2804	0.5165
2813	0.5158
2822	0.5147
2831	0.5085
2840	0.4968
2849	0.4823
2858	0.4735
2867	0.483
2876	0.4901
2885	0.4887
2894	0.4836
2903	0.4756
2912	0.4656
2921	0.4502
2930	0.4195
2939	0.4
2948	0.4726
2957	0.4775
2966	0.4765
2975	0.4702
2984	0.4542
2993	0.4361
3002	0.3974
3011	0.4383
3020	0.4667
3029	0.4697
3038	0.463
3047	0.452
3056	0.4587
3065	0.4454
3074	0.4436
3083	0.4474
3092	0.432
3101	0.4121
3110	0.4325
3119	0.4709
3128	0.4797
3137	0.4785
3146	0.4772
3155	0.4756
3164	0.4736
3173	0.4709
3182	0.4691
3191	0.4672
3200	0.465
3209	0.4625
3218	0.46
3227	0.4574
3236	0.4552
3245	0.453
3254	0.4509
3263	0.4487
3272	0.4465
3281	0.4442
3290	0.4419
3299	0.4396
3308	0.4373
3317	0.435
3326	0.4328
3335	0.4305
3344	0.4282
3353	0.4257
3362	0.4232
3371	0.4207
3380	0.4197
3389	0.4187
3398	0.4189
3407	0.4191
3416	0.418
3425	0.4167
3434	0.4154
3443	0.4139
3452	0.4125
3461	0.4105
3470	0.4085
3479	0.4064
3488	0.4053
3497	0.4044
3506	0.4034
3515	0.4025
3524	0.4018
3533	0.4011
3542	0.4004
3551	0.3996
3560	0.3986
3569	0.3976
3578	0.3967
3587	0.3957
3596	0.3951
3605	0.3944
3614	0.3937
3623	0.393
3632	0.3923
3641	0.3914
3650	0.3904
3659	0.3894
3668	0.3884
3677	0.387
3686	0.3857
3695	0.3838
3704	0.3815
3713	0.3791
3722	0.3775
3731	0.3762
3740	0.3751
3749	0.3738
3758	0.3727
3767	0.3716
3776	0.3708
3785	0.3701
3794	0.3693
