Infrared Spectrum: Polyethylene, low Mw ~4,000 by GPC
Formula: H ( C H 2 C H 2 ) n H
CAS: 9002-88-4
State: solid
Instrument: Bruker Tensor 37 FTIR
Resolution: 0.96438843
Origin: Pacific Northwest National Laboratory Under IARPA Contract
1/cm	Reflectance
7498.12	0.726419
7480.76	0.725581
7463.4	0.724498
7446.05	0.70276
7428.69	0.688405
7411.33	0.664381
7393.97	0.629221
7376.62	0.592177
7359.26	0.54105
7341.9	0.47268
7324.54	0.509403
7307.18	0.519245
7289.83	0.485819
7272.47	0.484527
7255.11	0.493886
7237.75	0.503062
7220.4	0.509778
7203.04	0.535135
7185.68	0.551276
7168.32	0.572487
7150.96	0.59554
7133.61	0.617339
7116.25	0.628099
7098.89	0.642045
7081.53	0.653092
7064.18	0.658498
7046.82	0.661118
7029.46	0.653395
7012.1	0.651069
6994.74	0.639026
6977.39	0.666464
6960.03	0.681667
6942.67	0.689586
6925.31	0.693782
6907.96	0.69948
6890.6	0.698122
6873.24	0.698247
6855.88	0.691624
6838.52	0.682551
6821.17	0.670831
6803.81	0.662672
6786.45	0.654906
6769.09	0.640535
6751.74	0.613518
6734.38	0.570563
6717.02	0.506666
6699.66	0.419079
6682.3	0.340617
6664.95	0.250449
6647.59	0.182558
6630.23	0.17629
6612.87	0.274881
6595.52	0.270388
6578.16	0.22858
6560.8	0.31418
6543.44	0.341305
6526.08	0.323794
6508.73	0.327452
6491.37	0.325545
6474.01	0.339851
6456.65	0.35604
6439.3	0.383609
6421.94	0.405368
6404.58	0.406359
6387.22	0.408695
6369.86	0.407917
6352.51	0.405624
6335.15	0.405956
6317.79	0.410265
6300.43	0.404285
6283.08	0.410171
6265.72	0.414089
6248.36	0.403338
6231	0.387681
6213.64	0.407956
6196.29	0.40599
6178.93	0.404023
6161.57	0.423943
6144.21	0.437391
6126.86	0.449236
6109.5	0.45245
6092.14	0.45701
6074.78	0.446751
6057.42	0.441259
6040.07	0.435463
6022.71	0.413398
6005.35	0.385543
5987.99	0.345471
5970.64	0.28646
5953.28	0.193757
5935.92	0.128739
5918.56	0.0702051
5901.2	0.0995978
5883.85	0.0900812
5866.49	0.0887872
5849.13	0.076447
5831.77	0.0736922
5814.42	0.0772887
5797.06	0.077119
5779.7	0.101142
5762.34	0.11194
5744.98	0.1387
5727.63	0.144159
5710.27	0.133547
5692.91	0.136521
5675.55	0.147268
5658.2	0.14819
5640.84	0.171442
5623.48	0.181281
5606.12	0.180809
5588.76	0.166912
5571.41	0.143131
5554.05	0.11872
5536.69	0.20637
5519.33	0.225013
5501.98	0.229657
5484.62	0.232557
5467.26	0.201209
5449.9	0.216144
5432.54	0.210445
5415.19	0.244401
5397.83	0.256158
5380.47	0.247613
5363.11	0.225454
5345.76	0.183556
5328.4	0.164617
5311.04	0.135634
5293.68	0.0763747
5276.32	0.0592082
5258.97	0.0448704
5241.61	0.0330033
5224.25	0.0244184
5206.89	0.0321593
5189.54	0.0288234
5172.18	0.0323902
5154.82	0.0379579
5137.46	0.0484576
5120.1	0.0539643
5102.75	0.0591108
5085.39	0.0580723
5068.03	0.056874
5050.67	0.0733923
5033.32	0.0972904
5015.96	0.12176
4998.6	0.154285
4981.24	0.187598
4963.88	0.181164
4946.53	0.179075
4929.17	0.149267
4911.81	0.116236
4894.45	0.159768
4877.1	0.194714
4859.74	0.221216
4842.38	0.222638
4825.02	0.204366
4807.66	0.255964
4790.31	0.248559
4772.95	0.206148
4755.59	0.172606
4738.23	0.267537
4720.88	0.245676
4703.52	0.200942
4686.16	0.260094
4668.8	0.280698
4651.44	0.230762
4634.09	0.177683
4616.73	0.0682855
4599.37	0.0645872
4582.01	0.155712
4564.66	0.150941
4547.3	0.153947
4529.94	0.146539
4512.58	0.110121
4495.22	0.0601144
4477.87	0.0276804
4460.51	0.0517345
4443.15	0.0572622
4425.79	0.0376479
4408.44	0.0634538
4391.08	0.0655283
4373.72	0.0776695
4356.36	0.0835136
4339	0.0808816
4321.65	0.0828029
4304.29	0.100828
4286.93	0.0948793
4269.57	0.116449
4252.22	0.127868
4234.86	0.113801
4217.5	0.107312
4200.14	0.126176
4182.78	0.162422
4165.43	0.165598
4148.07	0.128531
4130.71	0.0879386
4113.35	0.0251442
4096	0.140207
4078.64	0.280358
4061.28	0.342103
4043.92	0.727107
4026.56	0.72214
4009.21	0.713445
3991.85	0.704879
3974.49	0.683232
3957.13	0.664419
3939.78	0.627431
3922.42	0.587194
3905.06	0.539446
3887.7	0.458647
3870.34	0.530235
3852.99	0.519963
3835.63	0.482517
3818.27	0.498359
3800.91	0.508433
3783.56	0.514079
3766.2	0.529177
3748.84	0.550608
3731.48	0.568679
3714.12	0.58487
3696.77	0.60918
3679.41	0.627402
3662.05	0.63797
3644.69	0.651894
3627.34	0.661202
3609.98	0.663783
3592.62	0.663412
3575.26	0.659145
3557.9	0.654952
3540.55	0.641464
3523.19	0.681038
3505.83	0.688026
3488.47	0.695078
3471.12	0.702068
3453.76	0.703932
3436.4	0.70361
3419.04	0.701459
3401.68	0.69929
3384.33	0.689604
3366.97	0.675963
3349.61	0.66874
3332.25	0.659761
3314.9	0.640662
3297.54	0.611885
3280.18	0.562411
3262.82	0.492661
3245.46	0.419131
3228.11	0.323936
3210.75	0.238701
3193.39	0.169487
3176.03	0.225244
3158.68	0.307659
3141.32	0.267348
3123.96	0.282854
3106.6	0.336162
3089.24	0.349589
3071.89	0.336847
3054.53	0.337922
3037.17	0.344172
3019.81	0.356685
3002.46	0.380211
2985.1	0.40013
2967.74	0.423689
2950.38	0.418935
2933.02	0.421868
2915.67	0.419583
2898.31	0.417256
2880.95	0.418026
2863.59	0.422213
2846.24	0.417669
2828.88	0.423404
2811.52	0.423817
2794.16	0.409064
2776.8	0.410135
2759.45	0.420387
2742.09	0.415388
2724.73	0.421952
2707.37	0.44065
2690.02	0.450988
2672.66	0.462327
2655.3	0.468547
2637.94	0.461959
2620.58	0.4587
2603.23	0.452113
2585.87	0.442338
2568.51	0.418138
2551.15	0.387052
2533.8	0.344413
2516.44	0.274461
2499.08	0.176515
2481.72	0.121254
2464.36	0.0618795
2447.01	0.110767
2429.65	0.0772589
2412.29	0.0874111
2394.93	0.075831
2377.58	0.0777625
2360.22	0.0808902
2342.86	0.0888943
2325.5	0.110409
2308.14	0.124762
2290.79	0.14262
2273.43	0.149435
2256.07	0.137982
2238.71	0.142946
2221.36	0.155942
2204	0.159008
2186.64	0.18216
2169.28	0.192326
2151.92	0.181879
2134.57	0.170742
2117.21	0.156619
2099.85	0.126602
2082.49	0.219206
2065.14	0.233356
2047.78	0.238422
2030.42	0.2355
2013.06	0.180502
1995.7	0.224603
1978.35	0.227795
1960.99	0.254678
1943.63	0.261342
1926.27	0.250233
1908.92	0.220847
1891.56	0.183478
1874.2	0.162349
1856.84	0.126027
1839.48	0.0714838
1822.13	0.0558455
1804.77	0.0433749
1787.41	0.0290956
1770.05	0.022557
1752.7	0.030214
1735.34	0.0286835
1717.98	0.0335486
1700.62	0.0410603
1683.26	0.0529871
1665.91	0.0555044
1648.55	0.0633469
1631.19	0.0578531
1613.83	0.0610144
1596.48	0.0808445
1579.12	0.10683
1561.76	0.126862
1544.4	0.165482
1527.04	0.19975
1509.69	0.170093
1492.33	0.186278
1474.97	0.130609
1457.61	0.137543
1440.26	0.16849
1422.9	0.197802
1405.54	0.23465
1388.18	0.230461
1370.82	0.220431
1353.47	0.262204
1336.11	0.246766
1318.75	0.189831
1301.39	0.240844
1284.04	0.266411
1266.68	0.246243
1249.32	0.176347
1231.96	0.281443
1214.6	0.270489
1197.25	0.227837
1179.89	0.157058
1162.53	0.0319075
1145.17	0.10491
1127.82	0.162219
1110.46	0.161196
1093.1	0.153611
1075.74	0.139485
1058.38	0.101097
1041.03	0.0423178
1023.67	0.0321995
1006.31	0.0510203
988.953	0.0337704
971.595	0.0460328
954.238	0.057093
936.88	0.0692871
919.522	0.079538
902.164	0.0879229
884.806	0.068043
867.449	0.0896556
850.091	0.102395
832.733	0.0971295
815.375	0.120687
798.018	0.126893
780.66	0.105569
763.302	0.125537
745.944	0.0991867
728.586	0.164174
711.229	0.155616
693.871	0.109726
676.513	0.0785141
659.155	0.0254778
641.798	0.172149
624.44	0.30816
607.082	0.300209
