Infrared Spectrum: POLYVINYL ALCOHOL
CAS: 9002-89-5
State: SOLID (MINERAL OIL MULL)
Class: COBLENTZ
Instrument: Not specified, most likely a prism, grating, or hybrid spectrometer.
Sampling: TRANSMISSION
Resolution: 4
Origin: WYANDOTTE CHEMICALS CORP., WYANDOTTE, MICHIGAN, USA
MICROMETERS	TRANSMITTANCE
2.033	0.794
2.07275	0.814
2.11251	0.825
2.15226	0.83
2.19202	0.81
2.23177	0.794
2.27153	0.807
2.31128	0.824
2.35103	0.832
2.39079	0.847
2.43054	0.855
2.4703	0.864
2.51005	0.875
2.54981	0.898
2.58956	0.925
2.62931	0.928
2.66907	0.946
2.70882	0.898
2.74858	0.726
2.78833	0.474
2.82809	0.262
2.86784	0.157
2.90759	0.112
2.94735	0.092
2.9871	0.082
3.02686	0.077
3.06661	0.074
3.10637	0.077
3.14612	0.081
3.18587	0.099
3.22563	0.121
3.26538	0.167
3.30514	0.157
3.34489	0.066
3.38465	0.038
3.4244	0.036
3.46415	0.041
3.50391	0.058
3.54366	0.248
3.58342	0.384
3.62317	0.447
3.66293	0.459
3.70268	0.484
3.74243	0.497
3.78219	0.529
3.82194	0.568
3.8617	0.608
3.90145	0.638
3.9412	0.656
3.98096	0.673
4.02071	0.694
4.06047	0.711
4.10022	0.726
4.13998	0.736
4.17973	0.744
4.21948	0.756
4.25924	0.734
4.29899	0.751
4.33875	0.767
4.3785	0.815
4.41826	0.819
4.45801	0.815
4.49776	0.82
4.53752	0.835
4.57727	0.84
4.61703	0.842
4.65678	0.845
4.69654	0.85
4.73629	0.85
4.77604	0.86
4.8158	0.87
4.85555	0.872
4.89531	0.88
4.93506	0.885
4.97482	0.89
5.01457	0.89
5.05432	0.89
5.09408	0.888
5.13383	0.895
5.17359	0.892
5.21334	0.887
5.2531	0.893
5.29285	0.89
5.3326	0.898
5.37236	0.897
5.41211	0.902
5.45187	0.897
5.49162	0.9
5.53138	0.902
5.57113	0.9
5.61088	0.902
5.65064	0.892
5.69039	0.88
5.73015	0.855
5.7699	0.824
5.80966	0.777
5.84941	0.744
5.88916	0.762
5.92892	0.733
5.96867	0.706
6.00843	0.673
6.04818	0.689
6.08794	0.716
6.12769	0.733
6.16744	0.764
6.2072	0.762
6.24695	0.751
6.28671	0.723
6.32646	0.709
6.36622	0.701
6.40597	0.713
6.44572	0.696
6.48548	0.701
6.52523	0.671
6.56499	0.656
6.60474	0.601
6.6445	0.52
6.68425	0.379
6.724	0.253
6.76376	0.097
6.80351	0.069
6.84327	0.074
6.88302	0.082
6.92278	0.119
6.96253	0.15
7.00228	0.165
7.04204	0.177
7.08179	0.205
7.12155	0.243
7.1613	0.281
7.20106	0.172
7.24081	0.131
7.28056	0.185
7.32032	0.222
7.36007	0.232
7.39983	0.212
7.43958	0.197
7.47933	0.19
7.51909	0.189
7.55884	0.203
7.5986	0.223
7.63835	0.238
7.67811	0.262
7.71786	0.283
7.75761	0.306
7.79737	0.326
7.83712	0.343
7.87688	0.358
7.91663	0.376
7.95639	0.381
7.99614	0.373
8.03589	0.344
8.07565	0.336
8.1154	0.363
8.15516	0.391
8.19491	0.406
8.23467	0.416
8.27442	0.426
8.31417	0.442
8.35393	0.449
8.39368	0.459
8.43344	0.459
8.47319	0.461
8.51295	0.452
8.5527	0.447
8.59245	0.436
8.63221	0.364
8.67196	0.213
8.71172	0.124
8.75147	0.145
8.79123	0.19
8.83098	0.208
8.87073	0.208
8.91049	0.2
8.95024	0.172
8.99	0.135
9.02975	0.104
9.06951	0.094
9.10926	0.091
9.14901	0.092
9.18877	0.101
9.22852	0.107
9.26828	0.121
9.30803	0.126
9.34779	0.14
9.38754	0.149
9.42729	0.17
9.46705	0.18
9.5068	0.187
9.54656	0.195
9.58631	0.208
9.62607	0.222
9.66582	0.232
9.70557	0.245
9.74533	0.262
9.78508	0.281
9.82484	0.303
9.86459	0.326
9.90435	0.349
9.9441	0.371
9.98385	0.389
10.0236	0.414
10.0634	0.422
10.1031	0.434
10.1429	0.442
10.1826	0.449
10.2224	0.449
10.2621	0.452
10.3019	0.457
10.3416	0.466
10.3814	0.469
10.4212	0.47
10.4609	0.475
10.5007	0.479
10.5404	0.48
10.5802	0.48
10.6199	0.477
10.6597	0.462
10.6994	0.454
10.7392	0.446
10.7789	0.441
10.8187	0.431
10.8584	0.419
10.8982	0.412
10.938	0.416
10.9777	0.422
11.0175	0.439
11.0572	0.452
11.097	0.462
11.1367	0.47
11.1765	0.474
11.2162	0.477
11.256	0.485
11.2957	0.49
11.3355	0.497
11.3753	0.509
11.415	0.512
11.4548	0.505
11.4945	0.479
11.5343	0.427
11.574	0.376
11.6138	0.313
11.6535	0.276
11.6933	0.253
11.733	0.237
11.7728	0.228
11.8126	0.225
11.8523	0.228
11.8921	0.238
11.9318	0.243
11.9716	0.25
12.0113	0.255
12.0511	0.262
12.0908	0.271
12.1306	0.275
12.1703	0.288
12.2101	0.293
12.2498	0.31
12.2896	0.333
12.3294	0.358
12.3691	0.384
12.4089	0.402
12.4486	0.422
12.4884	0.429
12.5281	0.436
12.5679	0.449
12.6076	0.447
12.6474	0.441
12.6871	0.444
12.7269	0.441
12.7667	0.436
12.8064	0.431
12.8462	0.426
12.8859	0.421
12.9257	0.416
12.9654	0.414
13.0052	0.407
13.0449	0.402
13.0847	0.398
13.1244	0.393
13.1642	0.393
13.2039	0.384
13.2437	0.384
13.2835	0.379
13.3232	0.378
13.363	0.374
13.4027	0.371
13.4425	0.361
13.4822	0.358
13.522	0.354
13.5617	0.354
13.6015	0.349
13.6412	0.343
13.681	0.339
13.7208	0.338
13.7605	0.338
13.8003	0.336
13.84	0.333
13.8798	0.33
13.9195	0.33
13.9593	0.336
13.999	0.339
14.0388	0.343
14.0785	0.346
14.1183	0.349
14.1581	0.351
14.1978	0.349
14.2376	0.353
14.2773	0.353
14.3171	0.353
14.3568	0.353
14.3966	0.353
14.4363	0.349
14.4761	0.354
14.5158	0.353
14.5556	0.353
14.5953	0.354
14.6351	0.358
14.6749	0.363
14.7146	0.363
14.7544	0.363
14.7941	0.364
14.8339	0.369
14.8736	0.369
14.9134	0.371
14.9531	0.373
14.9929	0.374
15.0326	0.376
15.0724	0.379
15.1122	0.386
15.1519	0.384
15.1917	0.379
15.2314	0.389
15.2712	0.389
15.3109	0.389
15.3507	0.391
15.3904	0.396
15.4302	0.399
15.4699	0.399
15.5097	0.409
15.5495	0.411
15.5892	0.412
15.629	0.416
15.6687	0.422
15.7085	0.421
15.7482	0.424
15.788	0.439
15.8277	0.437
15.8675	0.437
15.9072	0.441
15.947	0.444
15.9867	0.449
