Infrared Spectrum: PLURONIC L62
CAS: 9003-11-6
State: LIQUID
Class: COBLENTZ
Instrument: Not specified, most likely a prism, grating, or hybrid spectrometer.
Sampling: TRANSMISSION
Path length: 0.0015 CM
Resolution: 4
Origin: WYANDOTTE CHEMICALS CORP., WYANDOTTE, MICHIGAN, USA
MICROMETERS	TRANSMITTANCE
2.027	0.976
2.06677	0.975
2.10654	0.975
2.14631	0.975
2.18609	0.973
2.22586	0.953
2.26563	0.936
2.3054	0.938
2.34517	0.941
2.38494	0.941
2.42471	0.933
2.46449	0.926
2.50426	0.93
2.54403	0.94
2.5838	0.955
2.62357	0.966
2.66334	0.968
2.70311	0.97
2.74289	0.97
2.78266	0.93
2.82243	0.85
2.8622	0.737
2.90197	0.653
2.94174	0.642
2.98151	0.687
3.02129	0.773
3.06106	0.838
3.10083	0.868
3.1406	0.88
3.18037	0.881
3.22014	0.893
3.25991	0.886
3.29969	0.848
3.33946	0.582
3.37923	0.109
3.419	0.071
3.45877	0.041
3.49854	0.028
3.53831	0.078
3.57809	0.341
3.61786	0.472
3.65763	0.585
3.6974	0.663
3.73717	0.745
3.77694	0.806
3.81671	0.843
3.85649	0.871
3.89626	0.886
3.93603	0.906
3.9758	0.93
4.01557	0.94
4.05534	0.94
4.09511	0.94
4.13489	0.941
4.17466	0.943
4.21443	0.955
4.2542	0.963
4.29397	0.961
4.33374	0.961
4.37351	0.96
4.41329	0.961
4.45306	0.961
4.49283	0.96
4.5326	0.958
4.57237	0.958
4.61214	0.958
4.65191	0.958
4.69169	0.958
4.73146	0.958
4.77123	0.963
4.811	0.963
4.85077	0.965
4.89054	0.965
4.93031	0.965
4.97009	0.966
5.00986	0.963
5.04963	0.956
5.0894	0.945
5.12917	0.936
5.16894	0.936
5.20871	0.938
5.24849	0.95
5.28826	0.973
5.32803	0.988
5.3678	0.995
5.40757	0.995
5.44734	0.996
5.48711	0.998
5.52689	1
5.56666	1
5.60643	0.998
5.6462	0.998
5.68597	0.993
5.72574	0.988
5.76551	0.985
5.80529	0.975
5.84506	0.97
5.88483	0.971
5.9246	0.966
5.96437	0.953
6.00414	0.93
6.04391	0.916
6.08369	0.898
6.12346	0.906
6.16323	0.913
6.203	0.926
6.24277	0.931
6.28254	0.943
6.32231	0.945
6.36209	0.95
6.40186	0.95
6.44163	0.951
6.4814	0.946
6.52117	0.941
6.56094	0.933
6.60071	0.923
6.64049	0.895
6.68026	0.808
6.72003	0.633
6.7598	0.434
6.79957	0.302
6.83934	0.251
6.87911	0.249
6.91889	0.371
6.95866	0.542
6.99843	0.66
7.0382	0.672
7.07797	0.587
7.11774	0.497
7.15751	0.452
7.19729	0.382
7.23706	0.242
7.27683	0.101
7.3166	0.188
7.35637	0.306
7.39614	0.284
7.43591	0.221
7.47569	0.332
7.51546	0.444
7.55523	0.472
7.595	0.46
7.63477	0.4
7.67454	0.317
7.71431	0.269
7.75409	0.297
7.79386	0.332
7.83363	0.329
7.8734	0.396
7.91317	0.409
7.95294	0.382
7.99271	0.357
8.03249	0.361
8.07226	0.397
8.11203	0.475
8.1518	0.58
8.19157	0.605
8.23134	0.613
8.27111	0.622
8.31089	0.617
8.35066	0.584
8.39043	0.524
8.4302	0.414
8.46997	0.297
8.50974	0.193
8.54951	0.126
8.58929	0.078
8.62906	0.041
8.66883	0.031
8.7086	0.029
8.74837	0.028
8.78814	0.028
8.82791	0.028
8.86769	0.026
8.90746	0.026
8.94723	0.026
8.987	0.026
9.02677	0.026
9.06654	0.021
9.10631	0.024
9.14609	0.024
9.18586	0.026
9.22563	0.026
9.2654	0.028
9.30517	0.033
9.34494	0.039
9.38471	0.051
9.42449	0.063
9.46426	0.091
9.50403	0.134
9.5438	0.184
9.58357	0.232
9.62334	0.271
9.66311	0.307
9.70289	0.327
9.74266	0.336
9.78243	0.322
9.8222	0.296
9.86197	0.281
9.90174	0.299
9.94151	0.364
9.98129	0.432
10.0211	0.494
10.0608	0.53
10.1006	0.569
10.1404	0.592
10.1801	0.608
10.2199	0.622
10.2597	0.623
10.2995	0.608
10.3392	0.582
10.379	0.55
10.4188	0.54
10.4585	0.537
10.4983	0.522
10.5381	0.499
10.5779	0.459
10.6176	0.404
10.6574	0.356
10.6972	0.319
10.7369	0.307
10.7767	0.296
10.8165	0.294
10.8563	0.301
10.896	0.327
10.9358	0.364
10.9756	0.402
11.0153	0.419
11.0551	0.439
11.0949	0.469
11.1347	0.527
11.1744	0.58
11.2142	0.615
11.254	0.635
11.2937	0.642
11.3335	0.643
11.3733	0.647
11.4131	0.64
11.4528	0.617
11.4926	0.579
11.5324	0.56
11.5721	0.554
11.6119	0.55
11.6517	0.552
11.6915	0.562
11.7312	0.562
11.771	0.562
11.8108	0.55
11.8505	0.529
11.8903	0.499
11.9301	0.487
11.9699	0.507
12.0096	0.555
12.0494	0.584
12.0892	0.6
12.1289	0.615
12.1687	0.643
12.2085	0.662
12.2483	0.697
12.288	0.722
12.3278	0.74
12.3676	0.762
12.4073	0.777
12.4471	0.8
12.4869	0.818
12.5267	0.83
12.5664	0.853
12.6062	0.866
12.646	0.89
12.6857	0.908
12.7255	0.923
12.7653	0.93
12.8051	0.938
12.8448	0.95
12.8846	0.961
12.9244	0.97
12.9641	0.976
13.0039	0.98
13.0437	0.985
13.0835	0.986
13.1232	0.988
13.163	0.991
13.2028	0.991
13.2425	0.991
13.2823	0.991
13.3221	0.993
13.3619	0.993
13.4016	0.991
13.4414	0.991
13.4812	0.991
13.5209	0.991
13.5607	0.993
13.6005	0.993
13.6403	0.993
13.68	0.993
13.7198	0.99
13.7596	0.99
13.7993	0.99
13.8391	0.99
13.8789	0.988
13.9187	0.986
13.9584	0.986
13.9982	0.986
14.038	0.988
14.0777	0.99
14.1175	0.988
14.1573	0.988
14.1971	0.986
14.2368	0.985
14.2766	0.981
14.3164	0.983
14.3561	0.981
14.3959	0.978
14.4357	0.978
14.4755	0.975
14.5152	0.97
14.555	0.968
14.5948	0.965
14.6345	0.961
14.6743	0.956
14.7141	0.953
14.7539	0.945
14.7936	0.941
14.8334	0.936
14.8732	0.933
14.9129	0.921
14.9527	0.913
14.9925	0.91
15.0323	0.88
15.072	0.86
15.1118	0.861
15.1516	0.868
15.1913	0.871
15.2311	0.868
15.2709	0.865
15.3107	0.863
15.3504	0.855
15.3902	0.851
15.43	0.85
15.4697	0.845
15.5095	0.84
15.5493	0.836
15.5891	0.835
15.6288	0.83
15.6686	0.823
15.7084	0.82
15.7481	0.815
15.7879	0.811
15.8277	0.805
15.8675	0.797
15.9072	0.795
15.947	0.787
15.9868	0.783
