Infrared Spectrum: VISTANEX (B-100)
Formula: ( C4 H8)x
CAS: 9003-27-4
State: SOLID
Class: COBLENTZ
Instrument: Not specified, most likely a prism, grating, or hybrid spectrometer.
Sampling: TRANSMISSION
Resolution: 4
MICROMETERS	TRANSMITTANCE
2.033	0.847
2.0731	0.849
2.1132	0.849
2.15329	0.846
2.19339	0.841
2.23349	0.801
2.27359	0.768
2.31369	0.771
2.35378	0.801
2.39388	0.803
2.43398	0.806
2.47408	0.824
2.51418	0.834
2.55427	0.836
2.59437	0.834
2.63447	0.849
2.67457	0.849
2.71467	0.856
2.75477	0.854
2.79486	0.859
2.83496	0.856
2.87506	0.851
2.91516	0.838
2.95526	0.831
2.99535	0.828
3.03545	0.823
3.07555	0.819
3.11565	0.819
3.15575	0.824
3.19584	0.829
3.23594	0.823
3.27604	0.786
3.31614	0.583
3.35624	0.178
3.39633	0.024
3.43643	0.041
3.47653	0.057
3.51663	0.249
3.55673	0.595
3.59682	0.72
3.63692	0.771
3.67702	0.76
3.71712	0.788
3.75722	0.8
3.79731	0.829
3.83741	0.844
3.87751	0.857
3.91761	0.866
3.95771	0.869
3.9978	0.871
4.0379	0.879
4.078	0.877
4.1181	0.88
4.1582	0.879
4.1983	0.867
4.23839	0.871
4.27849	0.887
4.31859	0.894
4.35869	0.89
4.39879	0.887
4.43888	0.889
4.47898	0.892
4.51908	0.894
4.55918	0.887
4.59928	0.887
4.63937	0.887
4.67947	0.889
4.71957	0.889
4.75967	0.894
4.79977	0.895
4.83986	0.899
4.87996	0.9
4.92006	0.9
4.96016	0.9
5.00026	0.9
5.04035	0.9
5.08045	0.902
5.12055	0.902
5.16065	0.902
5.20075	0.902
5.24084	0.902
5.28094	0.902
5.32104	0.902
5.36114	0.902
5.40124	0.902
5.44133	0.902
5.48143	0.902
5.52153	0.902
5.56163	0.902
5.60173	0.899
5.64183	0.89
5.68192	0.885
5.72202	0.864
5.76212	0.862
5.80222	0.867
5.84232	0.876
5.88241	0.884
5.92251	0.892
5.96261	0.897
6.00271	0.899
6.04281	0.895
6.0829	0.899
6.123	0.899
6.1631	0.899
6.2032	0.9
6.2433	0.904
6.28339	0.907
6.32349	0.904
6.36359	0.9
6.40369	0.899
6.44379	0.899
6.48388	0.889
6.52398	0.887
6.56408	0.869
6.60418	0.847
6.64428	0.776
6.68437	0.575
6.72447	0.309
6.76457	0.12
6.80467	0.11
6.84477	0.152
6.88487	0.289
6.92496	0.404
6.96506	0.495
7.00516	0.571
7.04526	0.684
7.08536	0.757
7.12545	0.682
7.16555	0.419
7.20565	0.158
7.24575	0.464
7.28585	0.447
7.32594	0.109
7.36604	0.413
7.40614	0.543
7.44624	0.631
7.48634	0.707
7.52643	0.763
7.56653	0.803
7.60663	0.839
7.64673	0.852
7.68683	0.861
7.72692	0.872
7.76702	0.876
7.80712	0.88
7.84722	0.885
7.88732	0.88
7.92741	0.866
7.96751	0.833
8.00761	0.733
8.04771	0.575
8.08781	0.345
8.1279	0.181
8.168	0.241
8.2081	0.333
8.2482	0.489
8.2883	0.595
8.3284	0.639
8.36849	0.664
8.40859	0.685
8.44869	0.7
8.48879	0.707
8.52889	0.705
8.56898	0.702
8.60908	0.699
8.64918	0.705
8.68928	0.719
8.72938	0.728
8.76947	0.75
8.80957	0.768
8.84967	0.806
8.88977	0.826
8.92987	0.838
8.96996	0.841
9.01006	0.851
9.05016	0.861
9.09026	0.864
9.13036	0.876
9.17045	0.879
9.21055	0.879
9.25065	0.889
9.29075	0.889
9.33085	0.889
9.37094	0.89
9.41104	0.895
9.45114	0.899
9.49124	0.899
9.53134	0.899
9.57143	0.9
9.61153	0.9
9.65163	0.897
9.69173	0.889
9.73183	0.877
9.77193	0.871
9.81202	0.867
9.85212	0.867
9.89222	0.867
9.93232	0.872
9.97242	0.876
10.0125	0.874
10.0526	0.866
10.0927	0.852
10.1328	0.846
10.1729	0.844
10.213	0.844
10.2531	0.841
10.2932	0.829
10.3333	0.816
10.3734	0.796
10.4135	0.765
10.4536	0.705
10.4937	0.641
10.5338	0.619
10.5739	0.631
10.614	0.662
10.6541	0.705
10.6942	0.725
10.7343	0.719
10.7744	0.68
10.8145	0.649
10.8546	0.647
10.8947	0.687
10.9348	0.745
10.9749	0.785
11.015	0.818
11.0551	0.839
11.0952	0.861
11.1353	0.872
11.1754	0.877
11.2155	0.877
11.2556	0.877
11.2957	0.884
11.3357	0.889
11.3758	0.894
11.4159	0.897
11.456	0.897
11.4961	0.904
11.5362	0.905
11.5763	0.905
11.6164	0.887
11.6565	0.88
11.6966	0.876
11.7367	0.876
11.7768	0.877
11.8169	0.879
11.857	0.892
11.8971	0.895
11.9372	0.904
11.9773	0.907
12.0174	0.907
12.0575	0.907
12.0976	0.912
12.1377	0.919
12.1778	0.923
12.2179	0.922
12.258	0.927
12.2981	0.93
12.3382	0.93
12.3783	0.932
12.4184	0.932
12.4585	0.932
12.4986	0.93
12.5387	0.927
12.5788	0.93
12.6189	0.928
12.659	0.928
12.6991	0.928
12.7392	0.928
12.7793	0.928
12.8194	0.927
12.8595	0.928
12.8996	0.928
12.9397	0.928
12.9798	0.927
13.0199	0.927
13.06	0.925
13.1001	0.923
13.1402	0.919
13.1803	0.917
13.2204	0.914
13.2605	0.91
13.3006	0.907
13.3407	0.905
13.3808	0.902
13.4208	0.899
13.4609	0.897
13.501	0.895
13.5411	0.892
13.5812	0.89
13.6213	0.889
13.6614	0.887
13.7015	0.884
13.7416	0.88
13.7817	0.877
13.8218	0.874
13.8619	0.871
13.902	0.869
13.9421	0.866
13.9822	0.864
14.0223	0.861
14.0624	0.857
14.1025	0.851
14.1426	0.847
14.1827	0.842
14.2228	0.836
14.2629	0.831
14.303	0.831
14.3431	0.829
14.3832	0.829
14.4233	0.829
14.4634	0.824
14.5035	0.821
14.5436	0.821
14.5837	0.818
14.6238	0.813
14.6639	0.808
14.704	0.801
14.7441	0.798
14.7842	0.796
14.8243	0.791
14.8644	0.785
14.9045	0.778
14.9446	0.778
14.9847	0.776
15.0248	0.775
15.0649	0.763
15.105	0.755
15.1451	0.752
15.1852	0.748
15.2253	0.747
15.2654	0.745
15.3055	0.742
15.3456	0.737
15.3857	0.732
15.4258	0.727
15.4658	0.725
15.5059	0.723
15.546	0.719
15.5861	0.71
15.6262	0.709
15.6663	0.704
15.7064	0.702
15.7465	0.702
15.7866	0.699
