Infrared Spectrum: Polystyrene
Formula: [ C H 2 C H( C 6 H 5 )] n
CAS: 9003-53-6
State: liquid
Instrument: Bruker Tensor 27 FTIR
Resolution: 0.48212986
Origin: Pacific Northwest National Laboratory Under IARPA Contract
1/cm	dispersion index
7797.49	1.55371
7778.93	1.55376
7760.37	1.55377
7741.81	1.55377
7723.24	1.55377
7704.68	1.55377
7686.12	1.55377
7667.56	1.55377
7649	1.55376
7630.44	1.55376
7611.88	1.55376
7593.31	1.55375
7574.75	1.55375
7556.19	1.55375
7537.63	1.55374
7519.07	1.55374
7500.51	1.55374
7481.95	1.55373
7463.38	1.55373
7444.82	1.55373
7426.26	1.55372
7407.7	1.55372
7389.14	1.55372
7370.58	1.55371
7352.02	1.55371
7333.46	1.5537
7314.89	1.55369
7296.33	1.55369
7277.77	1.55368
7259.21	1.55368
7240.65	1.55367
7222.09	1.55366
7203.53	1.55366
7184.96	1.55365
7166.4	1.55364
7147.84	1.55363
7129.28	1.55363
7110.72	1.55362
7092.16	1.55361
7073.6	1.5536
7055.03	1.55358
7036.47	1.55357
7017.91	1.55356
6999.35	1.55354
6980.79	1.55352
6962.23	1.55351
6943.67	1.5535
6925.1	1.55348
6906.54	1.55343
6887.98	1.55343
6869.42	1.55352
6850.86	1.55355
6832.3	1.55356
6813.74	1.55353
6795.17	1.55352
6776.61	1.55351
6758.05	1.55348
6739.49	1.55347
6720.93	1.55347
6702.37	1.55345
6683.81	1.55344
6665.25	1.55342
6646.68	1.55341
6628.12	1.5534
6609.56	1.55338
6591	1.55337
6572.44	1.55335
6553.88	1.55333
6535.32	1.55332
6516.75	1.5533
6498.19	1.55328
6479.63	1.55326
6461.07	1.55324
6442.51	1.55322
6423.95	1.55319
6405.39	1.55317
6386.82	1.55314
6368.26	1.55312
6349.7	1.55309
6331.14	1.55306
6312.58	1.55302
6294.02	1.55298
6275.46	1.55294
6256.89	1.55286
6238.33	1.55273
6219.77	1.55285
6201.21	1.55296
6182.65	1.55298
6164.09	1.55289
6145.53	1.55282
6126.96	1.55273
6108.4	1.55264
6089.84	1.55258
6071.28	1.55254
6052.72	1.55261
6034.16	1.55247
6015.6	1.55259
5997.03	1.5526
5978.47	1.5525
5959.91	1.55236
5941.35	1.55218
5922.79	1.55251
5904.23	1.55284
5885.67	1.5526
5867.11	1.55247
5848.54	1.55238
5829.98	1.55229
5811.42	1.55219
5792.86	1.55214
5774.3	1.55203
5755.74	1.55191
5737.18	1.55179
5718.61	1.55183
5700.05	1.55166
5681.49	1.55146
5662.93	1.55124
5644.37	1.55104
5625.81	1.55083
5607.25	1.55061
5588.68	1.55032
5570.12	1.54992
5551.56	1.54946
5533	1.5489
5514.44	1.54817
5495.88	1.54713
5477.32	1.54576
5458.75	1.54242
5440.19	1.53975
5421.63	1.54261
5403.07	1.55207
5384.51	1.53552
5365.95	1.53414
5347.39	1.57441
5328.82	1.56307
5310.26	1.56743
5291.7	1.56238
5273.14	1.55995
5254.58	1.55869
5236.02	1.55775
5217.46	1.557
5198.89	1.5567
5180.33	1.55625
5161.77	1.55583
5143.21	1.55554
5124.65	1.55518
5106.09	1.55483
5087.53	1.5545
5068.97	1.55418
5050.4	1.55435
5031.84	1.55394
5013.28	1.55374
4994.72	1.55343
4976.16	1.55317
4957.6	1.55282
4939.04	1.55243
4920.47	1.55194
4901.91	1.55126
4883.35	1.54971
4864.79	1.55317
4846.23	1.55015
4827.67	1.5526
4809.11	1.54975
4790.54	1.55125
4771.98	1.55017
4753.42	1.54926
4734.86	1.54773
4716.3	1.54516
4697.74	1.55887
4679.18	1.54741
4660.61	1.54043
4642.05	1.56986
4623.49	1.58652
4604.93	1.55943
4586.37	1.55687
4567.81	1.55728
4549.25	1.55781
4530.68	1.55558
4512.12	1.55267
4493.56	1.55058
4475	1.55562
4456.44	1.54878
4437.88	1.54406
4419.32	1.54317
4400.75	1.55353
4382.19	1.54949
4363.63	1.54719
4345.07	1.55009
4326.51	1.53797
4307.95	1.52849
4289.39	1.48973
4270.83	1.58476
4252.26	1.34274
4233.7	1.62602
4215.14	1.58311
4196.58	1.56832
4178.02	1.56261
4159.46	1.59628
4140.9	1.58149
4122.33	1.57426
4103.77	1.5785
4085.21	0.000171084
4066.65	0.000173553
4048.09	0.000175317
4029.53	0.000173201
4010.97	0.000170379
3992.4	0.000172495
3973.84	0.000174259
3955.28	0.000176375
3936.72	0.000174964
3918.16	0.000176023
3899.6	0.000174259
3881.04	0.000176728
3862.47	0.000179197
3843.91	0.000177786
3825.35	0.000188368
3806.79	0.000194365
3788.23	0.000201067
3769.67	0.000198598
3751.11	0.000199656
3732.54	0.000200714
3713.98	0.000194718
3695.42	0.000193661
3676.86	0.000190839
3658.3	0.000188016
3639.74	0.00018343
3621.18	0.000183077
3602.61	0.000182019
3584.05	0.000179197
3565.49	0.000179197
3546.93	0.000176728
3528.37	0.000174612
3509.81	0.000172848
3491.25	0.00017179
3472.69	0.000168615
3454.12	0.000165793
3435.56	0.000163677
3417	0.000161913
3398.44	0.000159444
3379.88	0.000159091
3361.32	0.000156269
3342.76	0.000159444
3324.19	0.000161206
3305.63	0.000158737
3287.07	0.000173553
3268.51	0.000219411
3249.95	0.000251159
3231.39	0.000247279
3212.83	0.000297015
3194.26	0.000543235
3175.7	0.000747831
3157.14	0.000652589
3138.58	0.000476212
3120.02	0.000380971
3101.46	0.000377442
3082.9	0.000324177
3064.33	0.000279025
3045.77	0.000327352
3027.21	0.000331939
3008.65	0.000277262
2990.09	0.000287845
2971.53	0.000283611
2952.97	0.000283258
2934.4	0.000265974
2915.84	0.000264563
2897.28	0.000267032
2878.72	0.000264563
2860.16	0.000249041
2841.6	0.000246219
2823.04	0.000242339
2804.47	0.000239164
2785.91	0.000237048
2767.35	0.000238459
2748.79	0.000235637
2730.23	0.000234579
2711.67	0.000233168
2693.11	0.000238459
2674.55	0.000237048
2655.98	0.000237048
2637.42	0.000242693
2618.86	0.000253275
2600.3	0.000251159
2581.74	0.000281142
2563.18	0.000295958
2544.62	0.000437411
2526.05	0.000924205
2507.49	0.00113938
2488.93	0.00079016
2470.37	0.000479741
2451.81	0.000483268
2433.25	0.00040919
2414.69	0.000497378
2396.12	0.000747831
2377.56	0.0010512
2359	0.00116055
2340.44	0.00108647
2321.88	0.00163676
2303.32	0.00143217
2284.76	0.00113938
2266.19	0.00117113
2247.63	0.00148155
2229.07	0.00335113
2210.51	0.00220822
2191.95	0.00109
2173.39	0.00100887
2154.83	0.000970064
2136.26	0.000931261
2117.7	0.000970064
2099.14	0.000980646
2080.58	0.00087482
2062.02	0.000913623
2043.46	0.000871293
2024.9	0.00141806
2006.33	0.00083249
1987.77	0.000567927
1969.21	0.000532653
1950.65	0.000589093
1932.09	0.000673753
1913.53	0.000627896
1894.97	0.000557345
1876.41	0.000444466
1857.84	0.000476212
1839.28	0.00055029
1820.72	0.000627896
1802.16	0.000807798
1783.6	0.00159443
1765.04	0.00201421
1746.48	0.0117466
1727.91	0.0440938
1709.35	0.0536181
1690.79	0.0148508
1672.23	0.0677281
1653.67	0.0998284
1635.11	0.0402135
1616.55	0.0133692
1597.98	0.0040919
1579.42	0.0023599
1560.86	0.00283259
1542.3	0.00253628
1523.74	0.00243045
1505.18	0.00240576
1486.62	0.00211298
1468.05	0.0017955
1449.49	0.00176375
1430.93	0.00132987
1412.37	0.00125579
1393.81	0.00133692
1375.25	0.00172495
1356.69	0.00219411
1338.12	0.00116055
1319.56	0.00113938
1301	0.000952426
1282.44	0.000804271
1263.88	0.000666698
1245.32	0.000574983
1226.76	0.000603204
1208.19	0.000776052
1189.63	0.00208828
1171.07	0.0143922
1152.51	0.00224349
1133.95	0.0108647
1115.39	0.00276556
1096.83	0.00698446
1078.27	0.00518543
1059.7	0.00235637
1041.14	0.0039508
1022.58	0.00285375
1004.02	0.0256097
985.458	0.00536181
966.897	0.00716083
948.335	0.116408
929.774	0.0740776
911.213	0.00984174
892.651	0.0300543
874.09	0.0280437
855.528	0.0236343
836.967	0.0116055
818.406	0.00878349
799.844	0.0162618
781.283	0.0146391
762.721	0.00656116
744.16	0.0176375
725.599	0.0175317
707.037	0.029878
688.476	0.0225055
669.915	0.0161207
651.353	0.043741
632.792	0.00412718
614.23	0.00574983
595.669	0.0237401
577.108	0.373915
558.546	0.0490323
539.985	0.0349576
521.423	0.00169673
502.862	0.0168262
484.301	0.0857183
465.739	0.0994756
447.178	0.0250453
428.616	0.0251864
410.055	0.0589093
