Infrared Spectrum: Nitrocellulose
Formula: C 6 H 9 ( N O 2 ) O 5 ; C 6 H 8 ( N O 2 ) 2 O 5 ; C 6 H 7 ( N O 2 ) 3 O 5
CAS: 9004-70-0
State: solid
Instrument: Bruker IR Cube FTIR
Resolution: 0.96450084
Origin: Pacific Northwest National Laboratory Under IARPA Contract
1/cm	Reflectance
7498.99	0.68973
7481.63	0.696069
7464.27	0.654762
7446.91	0.629023
7429.55	0.633023
7412.19	0.603114
7394.84	0.573213
7377.48	0.547095
7360.12	0.489608
7342.76	0.436995
7325.4	0.376702
7308.04	0.339282
7290.68	0.316035
7273.32	0.304614
7255.96	0.291385
7238.6	0.285869
7221.24	0.27839
7203.88	0.277049
7186.52	0.277032
7169.16	0.277446
7151.8	0.283693
7134.44	0.289699
7117.08	0.298027
7099.72	0.310633
7082.36	0.321344
7065	0.334637
7047.64	0.342417
7030.28	0.355357
7012.92	0.364832
6995.56	0.377458
6978.2	0.387859
6960.84	0.399862
6943.48	0.40913
6926.12	0.418622
6908.76	0.427342
6891.4	0.435181
6874.04	0.442181
6856.68	0.449016
6839.32	0.453714
6821.96	0.458208
6804.6	0.46238
6787.24	0.465034
6769.88	0.465027
6752.52	0.460039
6735.16	0.463914
6717.8	0.462885
6700.44	0.449119
6683.08	0.432778
6665.72	0.422211
6648.36	0.434475
6631	0.435268
6613.64	0.426669
6596.28	0.416179
6578.92	0.406409
6561.56	0.39685
6544.2	0.392588
6526.85	0.392743
6509.49	0.39256
6492.13	0.390723
6474.77	0.387476
6457.41	0.37893
6440.05	0.353647
6422.69	0.301738
6405.33	0.229159
6387.97	0.16007
6370.61	0.137011
6353.25	0.13256
6335.89	0.131684
6318.53	0.135726
6301.17	0.14275
6283.81	0.150764
6266.45	0.162317
6249.09	0.17299
6231.73	0.183503
6214.37	0.194988
6197.01	0.207175
6179.65	0.219838
6162.29	0.232741
6144.93	0.247
6127.57	0.259541
6110.21	0.270758
6092.85	0.278305
6075.49	0.281169
6058.13	0.289456
6040.77	0.292562
6023.41	0.292091
6006.05	0.2943
5988.69	0.278536
5971.33	0.247675
5953.97	0.252764
5936.61	0.230258
5919.25	0.212185
5901.89	0.20793
5884.53	0.193377
5867.17	0.190984
5849.81	0.19174
5832.45	0.184152
5815.09	0.17408
5797.73	0.163521
5780.37	0.15264
5763.01	0.14251
5745.65	0.135456
5728.29	0.133955
5710.93	0.135151
5693.57	0.136248
5676.21	0.134582
5658.86	0.127382
5641.5	0.117284
5624.14	0.100593
5606.78	0.0770339
5589.42	0.0406984
5572.06	0.0322523
5554.7	0.0289269
5537.34	0.0268964
5519.98	0.0259957
5502.62	0.0256907
5485.26	0.0255771
5467.9	0.0257355
5450.54	0.0259801
5433.18	0.0266421
5415.82	0.0273867
5398.46	0.0269787
5381.1	0.0274766
5363.74	0.0277338
5346.38	0.0284822
5329.02	0.0293271
5311.66	0.0309604
5294.3	0.032569
5276.94	0.0348579
5259.58	0.0364907
5242.22	0.0341954
5224.86	0.0370757
5207.5	0.0360104
5190.14	0.0456621
5172.78	0.0610412
5155.42	0.0686198
5138.06	0.0763943
5120.7	0.0810021
5103.34	0.087478
5085.98	0.0887775
5068.62	0.0883948
5051.26	0.0934754
5033.9	0.0792104
5016.54	0.0882618
4999.18	0.0870286
4981.82	0.0883432
4964.46	0.0853037
4947.1	0.0802266
4929.74	0.0764588
4912.38	0.0726624
4895.02	0.0685356
4877.66	0.0647499
4860.3	0.0612394
4842.94	0.0580419
4825.58	0.0551855
4808.22	0.0555629
4790.86	0.0566588
4773.51	0.0576035
4756.15	0.0589132
4738.79	0.0616699
4721.43	0.0644478
4704.07	0.0638489
4686.71	0.0632945
4669.35	0.0589325
4651.99	0.0515415
4634.63	0.0381881
4617.27	0.024882
4599.91	0.0125389
4582.55	0.024778
4565.19	0.0331043
4547.83	0.0322479
4530.47	0.0377967
4513.11	0.0395252
4495.75	0.0368203
4478.39	0.0269183
4461.03	0.0238193
4443.67	0.0203734
4426.31	0.0216827
4408.95	0.0155252
4391.59	0.0354931
4374.23	0.0321711
4356.87	0.0291905
4339.51	0.0195267
4322.15	0.0191951
4304.79	0.0175715
4287.43	0.0235941
4270.07	0.0242838
4252.71	0.0243222
4235.35	0.0338682
4217.99	0.0295684
4200.63	0.0203425
4183.27	0.0172967
4165.91	0.0385689
4148.55	0.0358263
4131.19	0.0254824
4113.83	0.0284406
4096.47	0.0275503
4079.11	0.0296068
4061.75	0.0380229
4044.39	0.691403
4027.03	0.670541
4009.67	0.635489
3992.31	0.6124
3974.95	0.59332
3957.59	0.597083
3940.23	0.555245
3922.87	0.515496
3905.52	0.466473
3888.16	0.40746
3870.8	0.359356
3853.44	0.327691
3836.08	0.303003
3818.72	0.28695
3801.36	0.282515
3784	0.278159
3766.64	0.275065
3749.28	0.272289
3731.92	0.27269
3714.56	0.278513
3697.2	0.283138
3679.84	0.287207
3662.48	0.297787
3645.12	0.310322
3627.76	0.32091
3610.4	0.328458
3593.04	0.342433
3575.68	0.354382
3558.32	0.363421
3540.96	0.376054
3523.6	0.387835
3506.24	0.39703
3488.88	0.407225
3471.52	0.414233
3454.16	0.423708
3436.8	0.432559
3419.44	0.439437
3402.08	0.446334
3384.72	0.449941
3367.36	0.452186
3350	0.460719
3332.64	0.461477
3315.28	0.459136
3297.92	0.457291
3280.56	0.46007
3263.2	0.453019
3245.84	0.440578
3228.48	0.421726
3211.12	0.42139
3193.76	0.432588
3176.4	0.430136
3159.04	0.420582
3141.68	0.408551
3124.32	0.398855
3106.96	0.389899
3089.6	0.389564
3072.24	0.388998
3054.88	0.388003
3037.52	0.385736
3020.17	0.381538
3002.81	0.368025
2985.45	0.336741
2968.09	0.277537
2950.73	0.204904
2933.37	0.146635
2916.01	0.135508
2898.65	0.132216
2881.29	0.132217
2863.93	0.136067
2846.57	0.142733
2829.21	0.151857
2811.85	0.162994
2794.49	0.17293
2777.13	0.184146
2759.77	0.193658
2742.41	0.206431
2725.05	0.2197
2707.69	0.230923
2690.33	0.245258
2672.97	0.257576
2655.61	0.267458
2638.25	0.273759
2620.89	0.278313
2603.53	0.285431
2586.17	0.286827
2568.81	0.28348
2551.45	0.288034
2534.09	0.261736
2516.73	0.245791
2499.37	0.245753
2482.01	0.218403
2464.65	0.209834
2447.29	0.202928
2429.93	0.18687
2412.57	0.190651
2395.21	0.18616
2377.85	0.178758
2360.49	0.168249
2343.13	0.158804
2325.77	0.148838
2308.41	0.139027
2291.05	0.133762
2273.69	0.133295
2256.33	0.135048
2238.97	0.135452
2221.61	0.131296
2204.25	0.124769
2186.89	0.113037
2169.53	0.0948138
2152.18	0.0675406
2134.82	0.038019
2117.46	0.0320122
2100.1	0.029765
2082.74	0.0288866
2065.38	0.0270868
2048.02	0.0277186
2030.66	0.0272995
2013.3	0.0279136
1995.94	0.0278007
1978.58	0.0281257
1961.22	0.0289465
1943.86	0.0288401
1926.5	0.0299896
1909.14	0.0301758
1891.78	0.0305851
1874.42	0.0319415
1857.06	0.0323026
1839.7	0.0352038
1822.34	0.037197
1804.98	0.0380531
1787.62	0.0355492
1770.26	0.0378047
1752.9	0.0384958
1735.54	0.0514132
1718.18	0.0636412
1700.82	0.0707945
1683.46	0.0772173
1666.1	0.081256
1648.74	0.0873513
1631.38	0.086337
1614.02	0.088641
1596.66	0.0905411
1579.3	0.0736478
1561.94	0.0882611
1544.58	0.0852655
1527.22	0.0856161
1509.86	0.0823433
1492.5	0.0781716
1475.14	0.0743656
1457.78	0.0706125
1440.42	0.0663687
1423.06	0.0631046
1405.7	0.059842
1388.34	0.0570549
1370.98	0.0548662
1353.62	0.0555371
1336.26	0.0566522
1318.9	0.0575867
1301.54	0.0593681
1284.19	0.0620916
1266.83	0.0639936
1249.47	0.0631419
1232.11	0.0615088
1214.75	0.0564879
1197.39	0.0478406
1180.03	0.0344693
1162.67	0.0219793
1145.31	0.0113079
1127.95	0.031583
1110.59	0.0327456
1093.23	0.0353023
1075.87	0.0387904
1058.51	0.0393715
1041.15	0.0371043
1023.79	0.0293088
1006.43	0.0261985
989.068	0.0202317
971.709	0.0193397
954.349	0.014254
936.989	0.0431302
919.629	0.0359675
902.269	0.028374
884.91	0.0182416
867.55	0.0182871
850.19	0.0165557
832.83	0.029847
815.47	0.023627
798.111	0.0300673
780.751	0.0380021
763.391	0.0264409
746.031	0.0191633
728.671	0.0220551
711.312	0.0411891
693.952	0.0359627
676.592	0.0271114
659.232	0.0287969
641.872	0.0290814
624.513	0.0322495
607.153	0.0301042
