Infrared Spectrum: Sigmacell Cellulose (20 um)
Formula: ( C 6 H 10 O 5 ) n
CAS: 9004-34-6
State: solid
Instrument: Bruker Tensor 37 FTIR
Resolution: 0.96450084
Origin: Pacific Northwest National Laboratory Under IARPA Contract
1/cm	Reflectance
7498.99	0.858034
7481.63	0.859115
7464.27	0.844027
7446.91	0.833548
7429.55	0.8235
7412.19	0.814736
7394.84	0.81975
7377.48	0.81572
7360.12	0.810838
7342.76	0.816408
7325.4	0.804142
7308.04	0.787819
7290.68	0.77329
7273.32	0.748216
7255.96	0.719881
7238.6	0.699449
7221.24	0.694075
7203.88	0.689626
7186.52	0.681572
7169.16	0.670252
7151.8	0.666851
7134.44	0.657962
7117.08	0.657105
7099.72	0.661906
7082.36	0.662142
7065	0.66643
7047.64	0.672397
7030.28	0.676481
7012.92	0.679462
6995.56	0.677399
6978.2	0.678663
6960.84	0.681008
6943.48	0.684367
6926.12	0.68868
6908.76	0.689729
6891.4	0.69833
6874.04	0.705873
6856.68	0.718711
6839.32	0.728598
6821.96	0.743911
6804.6	0.75216
6787.24	0.761043
6769.88	0.770563
6752.52	0.77685
6735.16	0.780026
6717.8	0.776546
6700.44	0.77246
6683.08	0.761968
6665.72	0.761504
6648.36	0.760572
6631	0.756805
6613.64	0.753922
6596.28	0.751304
6578.92	0.746287
6561.56	0.745657
6544.2	0.746035
6526.85	0.748318
6509.49	0.747821
6492.13	0.746684
6474.77	0.751664
6457.41	0.757352
6440.05	0.763426
6422.69	0.763689
6405.33	0.755774
6387.97	0.732439
6370.61	0.694275
6353.25	0.669269
6335.89	0.664329
6318.53	0.675208
6301.17	0.688391
6283.81	0.699561
6266.45	0.705722
6249.09	0.704153
6231.73	0.689108
6214.37	0.655212
6197.01	0.609865
6179.65	0.566087
6162.29	0.532771
6144.93	0.512837
6127.57	0.505671
6110.21	0.512863
6092.85	0.532503
6075.49	0.552685
6058.13	0.571985
6040.77	0.589721
6023.41	0.607132
6006.05	0.618431
5988.69	0.621209
5971.33	0.59452
5953.97	0.535468
5936.61	0.536332
5919.25	0.526709
5901.89	0.495557
5884.53	0.480927
5867.17	0.486458
5849.81	0.498196
5832.45	0.504868
5815.09	0.49263
5797.73	0.452697
5780.37	0.400357
5763.01	0.357923
5745.65	0.365763
5728.29	0.384821
5710.93	0.410151
5693.57	0.431912
5676.21	0.459375
5658.86	0.474566
5641.5	0.47659
5624.14	0.470635
5606.78	0.441116
5589.42	0.36489
5572.06	0.230835
5554.7	0.125428
5537.34	0.068064
5519.98	0.043371
5502.62	0.0325131
5485.26	0.0283428
5467.9	0.0275659
5450.54	0.0277968
5433.18	0.0280551
5415.82	0.0301471
5398.46	0.0315266
5381.1	0.0349873
5363.74	0.0412382
5346.38	0.0510468
5329.02	0.0647494
5311.66	0.0824081
5294.3	0.104072
5276.94	0.126438
5259.58	0.144191
5242.22	0.126089
5224.86	0.0703623
5207.5	0.0496513
5190.14	0.0510659
5172.78	0.0725076
5155.42	0.108167
5138.06	0.129904
5120.7	0.136261
5103.34	0.148691
5085.98	0.172287
5068.62	0.189021
5051.26	0.206831
5033.9	0.215513
5016.54	0.21502
4999.18	0.231194
4981.82	0.254388
4964.46	0.278427
4947.1	0.303505
4929.74	0.326581
4912.38	0.34599
4895.02	0.347788
4877.66	0.326998
4860.3	0.321318
4842.94	0.314471
4825.58	0.280899
4808.22	0.281935
4790.86	0.302404
4773.51	0.302564
4756.15	0.334464
4738.79	0.359518
4721.43	0.384044
4704.07	0.405497
4686.71	0.40389
4669.35	0.384585
4651.99	0.357757
4634.63	0.322645
4617.27	0.290969
4599.91	0.263089
4582.55	0.183469
4565.19	0.154904
4547.83	0.184641
4530.47	0.206286
4513.11	0.185118
4495.75	0.114989
4478.39	0.04183
4461.03	0.0354826
4443.67	0.0358747
4426.31	0.0309984
4408.95	0.0289176
4391.59	0.0369899
4374.23	0.03789
4356.87	0.0380926
4339.51	0.0242805
4322.15	0.0234736
4304.79	0.0241195
4287.43	0.0278285
4270.07	0.0323474
4252.71	0.036868
4235.35	0.0682044
4217.99	0.122622
4200.63	0.0835559
4183.27	0.150693
4165.91	0.144024
4148.55	0.110041
4131.19	0.0760632
4113.83	0.0460396
4096.47	0.0370011
4079.11	0.0341043
4061.75	0.0298149
4044.39	0.855692
4027.03	0.849844
4009.67	0.840036
3992.31	0.826569
3974.95	0.814143
3957.59	0.808465
3940.23	0.808077
3922.87	0.810299
3905.52	0.807085
3888.16	0.808473
3870.8	0.796308
3853.44	0.779742
3836.08	0.762042
3818.72	0.734996
3801.36	0.705491
3784	0.692466
3766.64	0.680427
3749.28	0.675
3731.92	0.667589
3714.56	0.660259
3697.2	0.65093
3679.84	0.647843
3662.48	0.64198
3645.12	0.648548
3627.76	0.654173
3610.4	0.656359
3593.04	0.661882
3575.68	0.663099
3558.32	0.668289
3540.96	0.666448
3523.6	0.673012
3506.24	0.675238
3488.88	0.674046
3471.52	0.674087
3454.16	0.681544
3436.8	0.68981
3419.44	0.700407
3402.08	0.711223
3384.72	0.724749
3367.36	0.736965
3350	0.749108
3332.64	0.754478
3315.28	0.764799
3297.92	0.770634
3280.56	0.775602
3263.2	0.769653
3245.84	0.760462
3228.48	0.754106
3211.12	0.751484
3193.76	0.751306
3176.4	0.745332
3159.04	0.742916
3141.68	0.741775
3124.32	0.734507
3106.96	0.73681
3089.6	0.736622
3072.24	0.738855
3054.88	0.737776
3037.53	0.737995
3020.17	0.742939
3002.81	0.749664
2985.45	0.753286
2968.09	0.753735
2950.73	0.744248
2933.37	0.716573
2916.01	0.681563
2898.65	0.664531
2881.29	0.666685
2863.93	0.677921
2846.57	0.689445
2829.21	0.698912
2811.85	0.701538
2794.49	0.694072
2777.13	0.671727
2759.77	0.629447
2742.41	0.581245
2725.05	0.540164
2707.69	0.509367
2690.33	0.494538
2672.97	0.491167
2655.61	0.502962
2638.25	0.524746
2620.89	0.544677
2603.53	0.563882
2586.17	0.580985
2568.81	0.597383
2551.45	0.607102
2534.09	0.605177
2516.73	0.563535
2499.37	0.511873
2482.01	0.524951
2464.65	0.502493
2447.29	0.473578
2429.93	0.467814
2412.57	0.475017
2395.21	0.486937
2377.85	0.490074
2360.49	0.470727
2343.13	0.423432
2325.77	0.369876
2308.41	0.342362
2291.05	0.358316
2273.69	0.378645
2256.33	0.40411
2238.97	0.425402
2221.61	0.454975
2204.25	0.463213
2186.89	0.465343
2169.53	0.455629
2152.18	0.418366
2134.82	0.324538
2117.46	0.197145
2100.1	0.102852
2082.74	0.05745
2065.38	0.0384292
2048.02	0.0304969
2030.66	0.0272604
2013.3	0.0271364
1995.94	0.0276734
1978.58	0.028245
1961.22	0.0304928
1943.86	0.0317452
1926.5	0.0363104
1909.14	0.0435012
1891.78	0.0547152
1874.42	0.0692235
1857.06	0.0884845
1839.7	0.110578
1822.34	0.131279
1804.98	0.144112
1787.62	0.0991142
1770.26	0.0611336
1752.9	0.0445836
1735.54	0.0528039
1718.18	0.0810038
1700.82	0.114093
1683.46	0.128556
1666.1	0.133481
1648.74	0.151481
1631.38	0.171059
1614.02	0.188385
1596.66	0.204931
1579.3	0.207725
1561.94	0.210773
1544.58	0.231895
1527.22	0.252325
1509.86	0.279612
1492.5	0.302575
1475.14	0.325299
1457.78	0.34289
1440.42	0.338529
1423.06	0.316021
1405.7	0.319189
1388.34	0.298067
1370.98	0.271273
1353.62	0.284976
1336.26	0.298669
1318.9	0.303491
1301.54	0.338697
1284.19	0.361137
1266.83	0.390839
1249.47	0.404697
1232.11	0.398026
1214.75	0.374802
1197.39	0.345112
1180.03	0.30894
1162.67	0.286877
1145.31	0.247951
1127.95	0.17303
1110.59	0.168964
1093.23	0.195506
1075.87	0.204137
1058.51	0.170016
1041.15	0.0774907
1023.79	0.0371347
1006.43	0.0414622
989.068	0.0291425
971.709	0.0301083
954.349	0.0335998
936.989	0.0392899
919.629	0.0373202
902.269	0.0287656
884.91	0.0258029
867.55	0.0203436
850.19	0.02501
832.83	0.0348181
815.47	0.0368102
798.111	0.0397339
780.751	0.0866029
763.391	0.126748
746.031	0.0936148
728.671	0.163957
711.312	0.136589
693.952	0.105601
676.592	0.0691058
659.232	0.0420877
641.872	0.0363276
624.513	0.0366068
607.153	0.0335566
