Infrared Spectrum: 4-Hydroxy-3-methyl-2-butanone
Formula: C5 H10 O2
CAS: 9006-26-2
State: gas
Origin: EPA-IR VAPOR PHASE LIBRARY
1/CM	ABSORBANCE
501.5	0.0026
513.074	0.00241
524.648	0.00199
536.222	0.00145
547.796	0.00135
559.37	0.0014
570.944	0.00143
582.518	0.00166
594.092	0.00193
605.666	0.00174
617.24	0.00108
628.814	0.000744
640.388	0.000599
651.962	0.0005275
663.536	0.000622
675.11	0.0006211
686.684	0.0004361
698.258	0.0005375
709.832	0.0005981
721.406	0.0005819
732.98	0.0006095
744.554	0.0003664
756.128	0.0004179
767.702	0.0003977
779.276	0.0003501
790.85	0.0003588
802.423	0.0003238
813.997	0.0003715
825.571	0.0003917
837.145	0.0005057
848.719	0.0006832
860.293	0.0009304
871.867	0.00108
883.441	0.00126
895.015	0.00159
906.589	0.00192
918.163	0.00255
929.737	0.00332
941.311	0.00442
952.885	0.0052
964.459	0.00548
976.033	0.00562
987.607	0.0058
999.181	0.00642
1010.76	0.0089
1022.33	0.01385
1033.9	0.01729
1045.48	0.01651
1057.05	0.01308
1068.63	0.01033
1080.2	0.00699
1091.77	0.00548
1103.35	0.00543
1114.92	0.00558
1126.49	0.00497
1138.07	0.00508
1149.64	0.00712
1161.22	0.01014
1172.79	0.01034
1184.36	0.00802
1195.94	0.00608
1207.51	0.00613
1219.09	0.00613
1230.66	0.00553
1242.23	0.00445
1253.81	0.00383
1265.38	0.00344
1276.96	0.00341
1288.53	0.0036
1300.1	0.00371
1311.68	0.00408
1323.25	0.0049
1334.83	0.00655
1346.4	0.01013
1357.97	0.01396
1369.55	0.01407
1381.12	0.01055
1392.7	0.00822
1404.27	0.00677
1415.84	0.00527
1427.42	0.00443
1438.99	0.0045
1450.57	0.00532
1462.14	0.00593
1473.71	0.005
1485.29	0.00331
1496.86	0.00191
1508.44	0.00139
1520.01	0.0012
1531.58	0.00113
1543.16	0.00105
1554.73	0.0009918
1566.31	0.0009191
1577.88	0.0008142
1589.45	0.0007543
1601.03	0.0007333
1612.6	0.0007072
1624.18	0.0007756
1635.75	0.000864
1647.32	0.00106
1658.9	0.00152
1670.47	0.00256
1682.05	0.0045
1693.62	0.00856
1705.19	0.01688
1716.77	0.02572
1728.34	0.02889
1739.92	0.01915
1751.49	0.00867
1763.06	0.00337
1774.64	0.00156
1786.21	0.0008247
1797.79	0.0005068
1809.36	0.0003668
1820.93	0.0003074
1832.51	0.000254
1844.08	0.0002317
1855.66	0.0002131
1867.23	0.0001839
1878.8	0.000222
1890.38	0.0002345
1901.95	0.0002403
1913.53	0.0002322
1925.1	0.000204
1936.67	0.0002133
1948.25	0.0002353
1959.82	0.0002084
1971.4	0.0002069
1982.97	0.0001974
1994.54	0.0002195
2006.12	0.0002223
2017.69	0.0002167
2029.27	0.00026
2040.84	0.0002658
2052.41	0.0002849
2063.99	0.0003035
2075.56	0.0002772
2087.14	0.0002795
2098.71	0.0002071
2110.28	0.0001927
2121.86	0.0001803
2133.43	0.0001463
2145.01	0.0001423
2156.58	0.000122
2168.15	0.0001137
2179.73	0.0001148
2191.3	8.387e-05
2202.88	0.000123
2214.45	0.0001115
2226.02	0.0001387
2237.6	0.0001268
2249.17	0.0001296
2260.74	0.0001512
2272.32	0.0001715
2283.89	0.0001614
2295.47	0.0001815
2307.04	0.0001884
2318.61	0.0001766
2330.19	0.0002042
2341.76	0.0001874
2353.34	0.0001421
2364.91	0.0001899
2376.48	0.0001819
2388.06	0.0002142
2399.63	0.0002064
2411.21	0.0002287
2422.78	0.000232
2434.35	0.0002155
2445.93	0.0002014
2457.5	0.0001944
2469.08	0.0001951
2480.65	0.0002265
2492.22	0.0001855
2503.8	0.0002033
2515.37	0.0001758
2526.95	0.0001791
2538.52	0.0002045
2550.09	0.0002094
2561.67	0.0002082
2573.24	0.0001745
2584.82	0.0001636
2596.39	0.0002035
2607.96	0.0001952
2619.54	0.0001877
2631.11	0.0002009
2642.69	0.0002055
2654.26	0.0002612
2665.83	0.0002727
2677.41	0.000349
2688.98	0.0003877
2700.56	0.0004673
2712.13	0.0005352
2723.7	0.0006227
2735.28	0.000686
2746.85	0.0007336
2758.43	0.000772
2770	0.0008438
2781.57	0.000958
2793.15	0.00107
2804.72	0.00116
2816.3	0.00139
2827.87	0.0017
2839.44	0.0022
2851.02	0.00295
2862.59	0.0046
2874.17	0.00769
2885.74	0.01042
2897.31	0.01062
2908.89	0.00998
2920.46	0.01085
2932.04	0.01282
2943.61	0.01377
2955.18	0.01279
2966.76	0.01248
2978.33	0.01266
2989.91	0.00991
3001.48	0.00564
3013.05	0.00329
3024.63	0.00221
3036.2	0.00151
3047.78	0.00127
3059.35	0.00118
3070.92	0.0011
3082.5	0.00103
3094.07	0.0009186
3105.65	0.0008203
3117.22	0.000698
3128.79	0.0006227
3140.37	0.0005079
3151.94	0.0004344
3163.52	0.0004074
3175.09	0.0003595
3186.66	0.0003305
3198.24	0.0003099
3209.81	0.0002081
3221.39	0.00025
3232.96	0.0001668
3244.53	0.0002594
3256.11	0.000266
3267.68	0.0001425
3279.26	0.0002048
3290.83	0.0001888
3302.4	0.0002155
3313.98	0.0001898
3325.55	8.408e-05
3337.13	0.0001914
3348.7	0.0002095
3360.27	0.0002522
3371.85	0.0002829
3383.42	0.0003367
3395	0.0004046
3406.57	0.0005805
3418.14	0.000718
3429.72	0.0008624
3441.29	0.0008034
3452.86	0.0007106
3464.44	0.0005862
3476.01	0.0005769
3487.59	0.0004248
3499.16	0.0004639
3510.73	0.0003924
3522.31	0.0004454
3533.88	0.000548
3545.46	0.0007469
3557.03	0.0008778
3568.6	0.00126
3580.18	0.00176
3591.75	0.00228
3603.33	0.0024
3614.9	0.00247
3626.47	0.00248
3638.05	0.00249
3649.62	0.00272
3661.2	0.00355
3672.77	0.00356
3684.34	0.00247
3695.92	0.00119
3707.49	0.000658
3719.07	0.0004287
3730.64	0.000347
3742.21	0.0004456
3753.79	0.0004823
3765.36	0.0004371
3776.94	0.0003541
3788.51	0.0003094
3800.08	0.0003437
3811.66	0.0002506
3823.23	0.0003225
3834.81	0.0003201
3846.38	0.0003411
3857.95	0.0003936
3869.53	0.0003101
3881.1	0.0002821
3892.68	0.0003686
3904.25	0.0003656
3915.82	0.0003546
3927.4	0.0003148
3938.97	0.0002966
3950.55	0.0002591
3962.12	0.0002623
3973.69	0.0002305
3985.27	0.0002356
3996.84	0.00024
