Infrared Spectrum: EMULPHOR EL620
CAS: 9007-63-0
State: LIQUID
Class: COBLENTZ
Instrument: Not specified, most likely a prism, grating, or hybrid spectrometer.
Sampling: TRANSMISSION
Path length: 0.0015 CM
Resolution: 4
Origin: WYANDOTTE CHEMICALS CORP., WYANDOTTE, MICHIGAN, USA
MICROMETERS	TRANSMITTANCE
2.014	0.977
2.05479	0.976
2.09559	0.982
2.13638	0.948
2.17718	0.926
2.21797	0.862
2.25876	0.875
2.29956	0.877
2.34035	0.877
2.38115	0.858
2.42194	0.851
2.46274	0.853
2.50353	0.86
2.54432	0.877
2.58512	0.89
2.62591	0.892
2.66671	0.863
2.7075	0.817
2.74829	0.669
2.78909	0.483
2.82988	0.379
2.87068	0.342
2.91147	0.359
2.95227	0.42
2.99306	0.499
3.03385	0.594
3.07465	0.664
3.11544	0.708
3.15624	0.741
3.19703	0.764
3.23782	0.77
3.27862	0.746
3.31941	0.541
3.36021	0.218
3.401	0.003
3.4418	0
3.48259	0
3.52338	0.025
3.56418	0.284
3.60497	0.48
3.64577	0.567
3.68656	0.597
3.72735	0.676
3.76815	0.751
3.80894	0.775
3.84974	0.785
3.89053	0.792
3.93133	0.81
3.97212	0.816
4.01291	0.817
4.05371	0.821
4.0945	0.827
4.1353	0.826
4.17609	0.829
4.21688	0.829
4.25768	0.822
4.29847	0.821
4.33927	0.819
4.38006	0.819
4.42086	0.822
4.46165	0.819
4.50244	0.812
4.54324	0.821
4.58403	0.819
4.62483	0.816
4.66562	0.821
4.70641	0.812
4.74721	0.814
4.788	0.809
4.8288	0.812
4.86959	0.809
4.91039	0.81
4.95118	0.812
4.99197	0.81
5.03277	0.804
5.07356	0.775
5.11436	0.764
5.15515	0.764
5.19594	0.763
5.23674	0.771
5.27753	0.795
5.31833	0.812
5.35912	0.822
5.39992	0.819
5.44071	0.824
5.4815	0.824
5.5223	0.821
5.56309	0.804
5.60389	0.795
5.64468	0.763
5.68547	0.722
5.72627	0.521
5.76706	0.139
5.80786	0.201
5.84865	0.521
5.88945	0.618
5.93024	0.693
5.97103	0.705
6.01183	0.679
6.05262	0.638
6.09342	0.628
6.13421	0.662
6.175	0.7
6.2158	0.722
6.25659	0.739
6.29739	0.744
6.33818	0.749
6.37898	0.744
6.41977	0.754
6.46056	0.754
6.50136	0.746
6.54215	0.741
6.58295	0.729
6.62374	0.712
6.66453	0.637
6.70533	0.5
6.74612	0.427
6.78692	0.226
6.82771	0.17
6.86851	0.19
6.9093	0.25
6.95009	0.32
6.99089	0.415
7.03168	0.446
7.07248	0.471
7.11327	0.463
7.15406	0.453
7.19486	0.407
7.23565	0.337
7.27645	0.306
7.31724	0.286
7.35804	0.221
7.39883	0.143
7.43962	0.204
7.48042	0.32
7.52121	0.299
7.56201	0.262
7.6028	0.269
7.64359	0.229
7.68439	0.17
7.72518	0.165
7.76598	0.175
7.80677	0.182
7.84756	0.209
7.88836	0.211
7.92915	0.185
7.96995	0.137
8.01074	0.114
8.05154	0.119
8.09233	0.163
8.13312	0.224
8.17392	0.26
8.21471	0.26
8.25551	0.27
8.2963	0.265
8.33709	0.245
8.37789	0.212
8.41868	0.18
8.45948	0.151
8.50027	0.136
8.54107	0.119
8.58186	0.091
8.62265	0.052
8.66345	0.013
8.70424	0.003
8.74504	0.001
8.78583	0
8.82662	0
8.86742	0.001
8.90821	0
8.94901	0
8.9898	0
9.0306	0
9.07139	0
9.11218	0
9.15298	0
9.19377	0
9.23457	0.001
9.27536	0.011
9.31615	0.023
9.35695	0.03
9.39774	0.051
9.43854	0.073
9.47933	0.083
9.52013	0.095
9.56092	0.1
9.60171	0.103
9.64251	0.107
9.6833	0.126
9.7241	0.151
9.76489	0.185
9.80568	0.223
9.84648	0.258
9.88727	0.281
9.92807	0.299
9.96886	0.303
10.0097	0.299
10.0504	0.296
10.0912	0.287
10.132	0.294
10.1728	0.303
10.2136	0.323
10.2544	0.342
10.2952	0.35
10.336	0.337
10.3768	0.323
10.4176	0.291
10.4584	0.255
10.4992	0.231
10.54	0.201
10.5808	0.201
10.6216	0.199
10.6624	0.212
10.7032	0.233
10.744	0.255
10.7847	0.272
10.8255	0.293
10.8663	0.315
10.9071	0.333
10.9479	0.352
10.9887	0.367
11.0295	0.395
11.0703	0.412
11.1111	0.425
11.1519	0.439
11.1927	0.437
11.2335	0.425
11.2743	0.415
11.3151	0.395
11.3559	0.381
11.3967	0.386
11.4375	0.383
11.4782	0.367
11.519	0.362
11.5598	0.35
11.6006	0.339
11.6414	0.339
11.6822	0.337
11.723	0.337
11.7638	0.335
11.8046	0.332
11.8454	0.34
11.8862	0.339
11.927	0.345
11.9678	0.357
12.0086	0.378
12.0494	0.4
12.0902	0.42
12.131	0.441
12.1717	0.47
12.2125	0.48
12.2533	0.488
12.2941	0.499
12.3349	0.504
12.3757	0.519
12.4165	0.533
12.4573	0.54
12.4981	0.543
12.5389	0.548
12.5797	0.553
12.6205	0.558
12.6613	0.565
12.7021	0.574
12.7429	0.587
12.7837	0.592
12.8245	0.592
12.8652	0.599
12.906	0.604
12.9468	0.606
12.9876	0.604
13.0284	0.603
13.0692	0.603
13.11	0.604
13.1508	0.599
13.1916	0.599
13.2324	0.596
13.2732	0.592
13.314	0.591
13.3548	0.591
13.3956	0.591
13.4364	0.586
13.4772	0.579
13.518	0.572
13.5587	0.565
13.5995	0.557
13.6403	0.55
13.6811	0.538
13.7219	0.531
13.7627	0.517
13.8035	0.507
13.8443	0.505
13.8851	0.507
13.9259	0.521
13.9667	0.54
14.0075	0.551
14.0483	0.558
14.0891	0.562
14.1299	0.565
14.1707	0.574
14.2115	0.579
14.2522	0.579
14.293	0.579
14.3338	0.58
14.3746	0.58
14.4154	0.582
14.4562	0.591
14.497	0.587
14.5378	0.591
14.5786	0.599
14.6194	0.597
14.6602	0.591
14.701	0.596
14.7418	0.597
14.7826	0.596
14.8234	0.596
14.8642	0.599
14.905	0.601
14.9457	0.599
14.9865	0.594
15.0273	0.589
15.0681	0.575
15.1089	0.575
15.1497	0.579
15.1905	0.587
15.2313	0.589
15.2721	0.589
15.3129	0.587
15.3537	0.582
15.3945	0.587
15.4353	0.579
15.4761	0.575
15.5169	0.572
15.5577	0.584
15.5985	0.568
15.6392	0.568
15.68	0.567
15.7208	0.565
15.7616	0.562
15.8024	0.565
15.8432	0.56
15.884	0.555
15.9248	0.551
15.9656	0.553
