Infrared Spectrum: 4-(n-BUTYLSULFONYLMETHYL)-4-THIAZOLINE-2-THIONE
Formula: C8 H13 N O2 S3
CAS: 90087-94-8
State: SOLID (KBr PRESSING)
Melting point: 164-165 C
Class: COBLENTZ
Instrument: Not specified, most likely a prism, grating, or hybrid spectrometer.
Sampling: TRANSMISSION
Resolution: 4
Origin: EASTMAN KODAK COMPANY, RESEARCH LABORATORIES, ROCHESTER, N.Y.
MICROMETERS	TRANSMITTANCE
2	0.634
2.03994	0.639
2.07989	0.641
2.11983	0.644
2.15977	0.648
2.19971	0.649
2.23966	0.654
2.2796	0.656
2.31954	0.659
2.35949	0.664
2.39943	0.671
2.43937	0.674
2.47931	0.677
2.51926	0.679
2.5592	0.68
2.59914	0.689
2.63909	0.702
2.67903	0.708
2.71897	0.715
2.75892	0.705
2.79886	0.666
2.8388	0.615
2.87874	0.587
2.91869	0.57
2.95863	0.59
2.99857	0.636
3.03852	0.657
3.07846	0.659
3.1184	0.654
3.15834	0.628
3.19829	0.557
3.23823	0.271
3.27817	0.47
3.31812	0.33
3.35806	0.291
3.398	0.33
3.43794	0.424
3.47789	0.274
3.51783	0.394
3.55777	0.486
3.59772	0.565
3.63766	0.601
3.6776	0.546
3.71754	0.611
3.75749	0.671
3.79743	0.694
3.83737	0.707
3.87732	0.731
3.91726	0.741
3.9572	0.74
3.99714	0.741
4.03709	0.771
4.07703	0.776
4.11697	0.777
4.15692	0.782
4.19686	0.791
4.2368	0.789
4.27675	0.792
4.31669	0.799
4.35663	0.804
4.39657	0.822
4.43652	0.825
4.47646	0.827
4.5164	0.837
4.55635	0.84
4.59629	0.837
4.63623	0.843
4.67617	0.845
4.71612	0.845
4.75606	0.851
4.796	0.86
4.83595	0.858
4.87589	0.863
4.91583	0.87
4.95577	0.873
4.99572	0.871
5.03566	0.881
5.0756	0.883
5.11555	0.884
5.15549	0.889
5.19543	0.893
5.23537	0.899
5.27532	0.902
5.31526	0.906
5.3552	0.907
5.39515	0.912
5.43509	0.916
5.47503	0.911
5.51498	0.921
5.55492	0.921
5.59486	0.927
5.6348	0.927
5.67475	0.93
5.71469	0.921
5.75463	0.917
5.79458	0.909
5.83452	0.914
5.87446	0.914
5.9144	0.916
5.95435	0.911
5.99429	0.911
6.03423	0.906
6.07418	0.886
6.11412	0.871
6.15406	0.86
6.194	0.866
6.23395	0.865
6.27389	0.802
6.31383	0.449
6.35378	0.736
6.39372	0.828
6.43366	0.848
6.4736	0.85
6.51355	0.851
6.55349	0.851
6.59343	0.861
6.63338	0.873
6.67332	0.891
6.71326	0.886
6.7532	0.766
6.79315	0.212
6.83309	0.445
6.87303	0.625
6.91298	0.675
6.95292	0.768
6.99286	0.84
7.03281	0.865
7.07275	0.871
7.11269	0.804
7.15263	0.648
7.19258	0.7
7.23252	0.799
7.27246	0.863
7.31241	0.893
7.35235	0.889
7.39229	0.82
7.43223	0.62
7.47218	0.707
7.51212	0.771
7.55206	0.791
7.59201	0.68
7.63195	0.243
7.67189	0.123
7.71183	0.472
7.75178	0.569
7.79172	0.473
7.83166	0.631
7.87161	0.578
7.91155	0.523
7.95149	0.475
7.99143	0.166
8.03138	0.476
8.07132	0.638
8.11126	0.763
8.15121	0.824
8.19115	0.87
8.23109	0.899
8.27103	0.909
8.31098	0.906
8.35092	0.902
8.39086	0.893
8.43081	0.894
8.47075	0.883
8.51069	0.827
8.55064	0.572
8.59058	0.208
8.63052	0.317
8.67046	0.595
8.71041	0.736
8.75035	0.781
8.79029	0.777
8.83024	0.659
8.87018	0.327
8.91012	0.072
8.95006	0.445
8.99001	0.587
9.02995	0.726
9.06989	0.754
9.10984	0.708
9.14978	0.807
9.18972	0.792
9.22966	0.62
9.26961	0.675
9.30955	0.508
9.34949	0.212
9.38944	0.467
9.42938	0.56
9.46932	0.633
9.50926	0.738
9.54921	0.807
9.58915	0.838
9.62909	0.855
9.66904	0.87
9.70898	0.881
9.74892	0.893
9.78887	0.901
9.82881	0.906
9.86875	0.912
9.90869	0.924
9.94864	0.93
9.98858	0.937
10.0285	0.94
10.0685	0.944
10.1084	0.949
10.1484	0.952
10.1883	0.947
10.2282	0.942
10.2682	0.924
10.3081	0.853
10.3481	0.804
10.388	0.83
10.428	0.766
10.4679	0.547
10.5078	0.457
10.5478	0.712
10.5877	0.817
10.6277	0.884
10.6676	0.906
10.7076	0.919
10.7475	0.922
10.7874	0.922
10.8274	0.925
10.8673	0.947
10.9073	0.958
10.9472	0.965
10.9872	0.976
11.0271	0.983
11.067	0.973
11.107	0.955
11.1469	0.883
11.1869	0.652
11.2268	0.68
11.2668	0.838
11.3067	0.912
11.3466	0.927
11.3866	0.924
11.4265	0.858
11.4665	0.886
11.5064	0.94
11.5464	0.972
11.5863	0.99
11.6262	0.996
11.6662	1
11.7061	1
11.7461	0.996
11.786	0.991
11.826	0.98
11.8659	0.967
11.9058	0.934
11.9458	0.889
11.9857	0.902
12.0257	0.932
12.0656	0.93
12.1056	0.907
12.1455	0.868
12.1854	0.792
12.2254	0.646
12.2653	0.457
12.3053	0.391
12.3452	0.498
12.3852	0.644
12.4251	0.746
12.465	0.794
12.505	0.82
12.5449	0.814
12.5849	0.758
12.6248	0.679
12.6648	0.675
12.7047	0.741
12.7446	0.774
12.7846	0.768
12.8245	0.763
12.8645	0.797
12.9044	0.832
12.9444	0.842
12.9843	0.853
13.0242	0.851
13.0642	0.842
13.1041	0.787
13.1441	0.779
13.184	0.804
13.224	0.838
13.2639	0.825
13.3038	0.797
13.3438	0.804
13.3837	0.843
13.4237	0.879
13.4636	0.912
13.5036	0.932
13.5435	0.942
13.5834	0.952
13.6234	0.955
13.6633	0.952
13.7033	0.953
13.7432	0.96
13.7832	0.96
13.8231	0.96
13.863	0.957
13.903	0.953
13.9429	0.95
13.9829	0.95
14.0228	0.939
14.0628	0.94
14.1027	0.937
14.1426	0.914
14.1826	0.858
14.2225	0.68
14.2625	0.481
14.3024	0.476
14.3424	0.592
14.3823	0.694
14.4222	0.766
14.4622	0.812
14.5021	0.851
14.5421	0.871
14.582	0.891
14.622	0.904
14.6619	0.911
14.7018	0.922
14.7418	0.932
14.7817	0.929
14.8217	0.932
14.8616	0.937
14.9016	0.94
14.9415	0.93
14.9814	0.919
15.0214	0.924
15.0613	0.925
15.1013	0.916
15.1412	0.893
15.1812	0.817
15.2211	0.708
15.261	0.654
15.301	0.667
15.3409	0.725
15.3809	0.776
15.4208	0.802
15.4608	0.807
15.5007	0.812
15.5406	0.817
15.5806	0.814
15.6205	0.814
15.6605	0.815
15.7004	0.815
15.7404	0.815
15.7803	0.814
15.8202	0.814
15.8602	0.815
15.9001	0.812
15.9401	0.817
15.98	0.814
