Infrared Spectrum: Benzenemethanamine, N-methyl-N-phenyl-, hydrochloride
Formula: C14 H16 Cl N
CAS: 90097-08-8
State: SOLID (KBr DISC, 0.8% WT.)
Class: COBLENTZ III
Instrument: PERKIN-ELMER 157
Sampling: TRANSMISSION
Resolution: 2
Origin: BRITISH PETROLEUM CO. LTD., ENGLAND
1/CM	TRANSMITTANCE
668	0.6533
677	0.626
686	0.4158
695	0.0379
704	0.1715
713	0.6578
722	0.6844
731	0.5031
740	0.1766
749	0.3729
758	0.3128
767	0.1692
776	0.2657
785	0.6198
794	0.7697
803	0.7743
812	0.7735
821	0.7737
830	0.7531
839	0.7459
848	0.7279
857	0.6913
866	0.6273
875	0.6542
884	0.6294
893	0.5795
902	0.568
911	0.6184
920	0.6511
929	0.6308
938	0.6134
947	0.6023
956	0.6292
965	0.6852
974	0.6928
983	0.6846
992	0.6265
1001	0.5043
1010	0.4142
1019	0.4223
1028	0.4946
1037	0.5955
1046	0.711
1055	0.7115
1064	0.696
1073	0.6006
1082	0.4458
1091	0.6624
1100	0.5989
1109	0.4949
1118	0.3965
1127	0.3429
1136	0.5088
1145	0.5785
1154	0.6155
1163	0.5675
1172	0.6382
1181	0.5901
1190	0.5489
1199	0.5569
1208	0.551
1217	0.4223
1226	0.5576
1235	0.4961
1244	0.4986
1253	0.558
1262	0.6307
1271	0.6384
1280	0.6359
1289	0.6062
1298	0.5792
1307	0.5795
1316	0.5704
1325	0.5608
1334	0.5291
1343	0.4984
1352	0.4858
1361	0.4383
1370	0.3893
1379	0.3703
1388	0.29
1397	0.2485
1406	0.2928
1415	0.3396
1424	0.339
1433	0.3973
1442	0.3807
1451	0.1879
1460	0.1493
1469	0.2132
1478	0.2103
1487	0.11
1496	0.0911
1505	0.2527
1514	0.4261
1523	0.5524
1532	0.5631
1541	0.5809
1550	0.5777
1559	0.5747
1568	0.5609
1577	0.5256
1586	0.4894
1595	0.4027
1604	0.2368
1613	0.4266
1622	0.473
1631	0.4911
1640	0.5144
1649	0.546
1658	0.5673
1667	0.5757
1676	0.5893
1685	0.5904
1694	0.5912
1703	0.591
1712	0.59
1721	0.5887
1730	0.587
1739	0.5844
1748	0.5826
1757	0.5825
1766	0.5823
1775	0.5807
1784	0.5784
1793	0.5747
1802	0.572
1811	0.571
1820	0.5704
1829	0.5701
1838	0.5704
1847	0.5712
1856	0.5722
1865	0.5716
1874	0.5671
1883	0.5608
1892	0.5503
1901	0.5389
1910	0.5363
1919	0.5352
1928	0.534
1937	0.5323
1946	0.5286
1955	0.521
1964	0.513
1973	0.5085
1982	0.5067
1991	0.5064
2000	0.5068
2009	0.507
2018	0.5069
2027	0.506
2036	0.5009
2045	0.4961
2054	0.4944
2063	0.4908
2072	0.4826
2081	0.4803
2090	0.4759
2099	0.471
2108	0.4644
2117	0.4581
2126	0.452
2135	0.4438
2144	0.4344
2153	0.4317
2162	0.427
2171	0.4062
2180	0.3973
2189	0.3893
2198	0.3797
2207	0.3647
2216	0.3516
2225	0.3399
2234	0.3293
2243	0.3166
2252	0.3054
2261	0.2954
2270	0.2852
2279	0.2718
2288	0.2568
2297	0.2429
2306	0.2219
2315	0.207
2324	0.1909
2333	0.1645
2342	0.1528
2351	0.1423
2360	0.1309
2369	0.1205
2378	0.1166
2387	0.1148
2396	0.1109
2405	0.0997
2414	0.0904
2423	0.0833
2432	0.076
2441	0.0696
2450	0.0672
2459	0.0672
2468	0.0683
2477	0.0698
2486	0.0714
2495	0.0733
2504	0.075
2513	0.0758
2522	0.0759
2531	0.0755
2540	0.0752
2549	0.0747
2558	0.0745
2567	0.0749
2576	0.0769
2585	0.0818
2594	0.084
2603	0.0854
2612	0.0889
2621	0.0978
2630	0.1131
2639	0.1269
2648	0.132
2657	0.1349
2666	0.1387
2675	0.1498
2684	0.1651
2693	0.1851
2702	0.1969
2711	0.2032
2720	0.2053
2729	0.2075
2738	0.2107
2747	0.2117
2756	0.2099
2765	0.2079
2774	0.2055
2783	0.2021
2792	0.1941
2801	0.1862
2810	0.1824
2819	0.1811
2828	0.1784
2837	0.1751
2846	0.1741
2855	0.1751
2864	0.1819
2873	0.1838
2882	0.1832
2891	0.1803
2900	0.1761
2909	0.175
2918	0.179
2927	0.1828
2936	0.1849
2945	0.1853
2954	0.1853
2963	0.1851
2972	0.1847
2981	0.1836
2990	0.1804
2999	0.1752
3008	0.1693
3017	0.167
3026	0.1673
3035	0.1733
3044	0.1885
3053	0.2038
3062	0.2189
3071	0.2336
3080	0.2456
3089	0.2492
3098	0.2504
3107	0.2506
3116	0.2507
3125	0.2507
3134	0.2501
3143	0.2484
3152	0.2434
3161	0.2393
3170	0.2379
3179	0.2373
3188	0.2362
3197	0.2345
3206	0.2319
3215	0.2291
3224	0.2262
3233	0.2231
3242	0.2197
3251	0.2157
3260	0.211
3269	0.206
3278	0.2006
3287	0.195
3296	0.1888
3305	0.1807
3314	0.1722
3323	0.1653
3332	0.1592
3341	0.1532
3350	0.1474
3359	0.1427
3368	0.1392
3377	0.1366
3386	0.1344
3395	0.1324
3404	0.1317
3413	0.1312
3422	0.1314
3431	0.1317
3440	0.132
3449	0.1325
3458	0.1334
3467	0.1347
3476	0.138
3485	0.143
3494	0.1495
3503	0.1596
3512	0.1693
3521	0.1771
3530	0.1832
3539	0.1893
3548	0.1965
3557	0.2053
3566	0.2149
3575	0.2235
3584	0.2305
3593	0.2368
3602	0.2428
3611	0.2461
3620	0.2478
3629	0.2484
3638	0.2484
3647	0.2486
3656	0.2487
3665	0.2488
3674	0.2489
3683	0.2489
3692	0.2489
3701	0.2485
3710	0.2475
3719	0.2455
3728	0.2431
3737	0.2408
3746	0.2402
3755	0.2399
3764	0.2398
3773	0.2398
3782	0.2398
3791	0.2398
3800	0.24
3809	0.2401
3818	0.2403
3827	0.2405
3836	0.2407
3845	0.2408
3854	0.2409
3863	0.2409
3872	0.2408
3881	0.2408
3890	0.2406
3899	0.2405
3908	0.2402
3917	0.2401
3926	0.2398
3935	0.2397
3944	0.2394
3953	0.2393
3962	0.239
3971	0.2389
3980	0.2387
3989	0.2385
3998	0.2385
