Infrared Spectrum: 3Beta-ACETOXYESTRA-1,3,5(10)-TRIEN-17-ONE
Formula: C20 H24 O3
CAS: 901-93-9
State: SOLID (KBr DISC)
Class: COBLENTZ III
Instrument: BECKMAN IR-7
Sampling: TRANSMISSION
Resolution: 4
Origin: THE WORCESTER FOUNDATION FOR EXPERIMENTAL BIOLOGY, Neal L. McNiven
1/CM	TRANSMITTANCE
598.539	0.554
607.303	0.556
616.066	0.581
624.83	0.654
633.594	0.717
642.358	0.781
651.121	0.823
659.885	0.849
668.649	0.803
677.413	0.8779
686.176	0.938
694.94	0.94
703.704	0.925
712.467	0.946
721.231	0.968
729.995	0.968
738.759	0.965
747.522	0.936
756.286	0.96
765.05	0.962
773.814	0.853
782.577	0.964
791.341	0.966
800.105	0.966
808.868	0.9031
817.632	0.665
826.396	0.915
835.16	0.9131
843.923	0.964
852.687	0.952
861.451	0.917
870.214	0.903
878.978	0.868
887.742	0.774
896.506	0.819
905.269	0.728
914.033	0.878
922.797	0.79
931.561	0.796
940.324	0.745
949.088	0.691
957.852	0.864
966.615	0.846
975.379	0.84
984.143	0.798
992.907	0.706
1001.67	0.432
1010.43	0.494
1019.2	0.3709
1027.96	0.733
1036.73	0.658
1045.49	0.564
1054.25	0.671
1063.02	0.781
1071.78	0.76
1080.54	0.646
1089.31	0.787
1098.07	0.763
1106.84	0.718
1115.6	0.776
1124.36	0.772
1133.13	0.74
1141.89	0.599
1150.65	0.514
1159.42	0.577
1168.18	0.584
1176.94	0.411
1185.71	0.456
1194.47	0.332
1203.24	0.137
1212	0.093
1220.76	0.061
1229.53	0.135
1238.29	0.45
1247.05	0.607
1255.82	0.571
1264.58	0.758
1273.35	0.734
1282.11	0.767
1290.87	0.818
1299.64	0.817
1308.4	0.885
1317.16	0.888
1325.93	0.886
1334.69	0.791
1343.46	0.801
1352.22	0.726
1360.98	0.325
1369.75	0.627
1378.51	0.745
1387.27	0.807
1396.04	0.763
1404.8	0.728
1413.57	0.674
1422.33	0.609
1431.09	0.703
1439.86	0.758
1448.62	0.565
1457.38	0.742
1466.15	0.699
1474.91	0.729
1483.68	0.398
1492.44	0.482
1501.2	0.732
1509.97	0.87
1518.73	0.921
1527.49	0.928
1536.26	0.93
1545.02	0.928
1553.79	0.925
1562.55	0.896
1571.31	0.865
1580.08	0.843
1588.84	0.848
1597.6	0.756
1606.37	0.803
1615.13	0.875
1623.89	0.879
1632.66	0.88
1641.42	0.882
1650.19	0.88
1658.95	0.877
1667.71	0.867
1676.48	0.847
1685.24	0.791
1694	0.79
1702.77	0.704
1711.53	0.604
1720.3	0.238
1729.06	0.055
1737.82	0.2942
1746.59	0.449
1755.35	0.23
1764.11	0.282
1772.88	0.615
1781.64	0.777
1790.41	0.835
1799.17	0.867
1807.93	0.88
1816.7	0.897
1825.46	0.913
1834.22	0.928
1842.99	0.938
1851.75	0.941
1860.52	0.937
1869.28	0.925
1878.04	0.935
1886.81	0.944
1895.57	0.946
1904.33	0.947
1913.1	0.95
1921.86	0.952
1930.63	0.952
1939.39	0.951
1948.15	0.947
1956.92	0.946
1965.68	0.948
1974.44	0.946
1983.21	0.947
1991.97	0.949
2000.74	0.947
2009.5	0.947
2018.26	0.947
2027.03	0.947
2035.79	0.947
2044.55	0.947
2053.32	0.947
2062.08	0.946
2070.84	0.946
2079.61	0.946
2088.37	0.9456
2097.14	0.9446
2105.9	0.944
2114.66	0.944
2123.43	0.943
2132.19	0.942
2140.95	0.941
2149.72	0.941
2158.48	0.941
2167.25	0.9394
2176.01	0.938
2184.77	0.937
2193.54	0.936
2202.3	0.9333
2211.06	0.9316
2219.83	0.9303
2228.59	0.929
2237.36	0.928
2246.12	0.928
2254.88	0.9262
2263.65	0.926
2272.41	0.926
2281.17	0.925
2289.94	0.925
2298.7	0.925
2307.47	0.925
2316.23	0.9231
2324.99	0.923
2333.76	0.9211
2342.52	0.92
2351.28	0.919
2360.05	0.917
2368.81	0.916
2377.58	0.9149
2386.34	0.9119
2395.1	0.9089
2403.87	0.907
2412.63	0.9059
2421.39	0.904
2430.16	0.904
2438.92	0.904
2447.69	0.904
2456.45	0.904
2465.21	0.904
2473.98	0.904
2482.74	0.904
2491.5	0.903
2500.27	0.9027
2509.03	0.902
2517.79	0.901
2526.56	0.901
2535.32	0.9007
2544.09	0.899
2552.85	0.899
2561.61	0.8976
2570.38	0.8956
2579.14	0.893
2587.9	0.8915
2596.67	0.89
2605.43	0.889
2614.2	0.887
2622.96	0.885
2631.72	0.884
2640.49	0.883
2649.25	0.883
2658.01	0.882
2666.78	0.8804
2675.54	0.88
2684.31	0.879
2693.07	0.877
2701.83	0.8729
2710.6	0.8673
2719.36	0.864
2728.12	0.863
2736.89	0.8612
2745.65	0.8592
2754.42	0.8524
2763.18	0.8494
2771.94	0.8462
2780.71	0.8432
2789.47	0.8256
2798.23	0.8057
2807	0.7838
2815.76	0.7261
2824.53	0.7005
2833.29	0.6794
2842.05	0.6642
2850.82	0.5662
2859.58	0.4868
2868.34	0.4697
2877.11	0.5556
2885.87	0.6171
2894.64	0.5917
2903.4	0.4593
2912.16	0.3529
2920.93	0.3677
2929.69	0.4071
2938.45	0.4463
2947.22	0.4902
2955.98	0.5844
2964.74	0.6812
2973.51	0.7057
2982.27	0.7376
2991.04	0.752
2999.8	0.7747
3008.56	0.7906
3017.33	0.795
3026.09	0.795
3034.85	0.79
3043.62	0.7837
3052.38	0.7581
3061.15	0.7404
3069.91	0.7712
3078.67	0.7899
3087.44	0.7945
3096.2	0.795
3104.96	0.7955
3113.73	0.7975
3122.49	0.798
3131.26	0.799
3140.02	0.799
3148.78	0.798
3157.55	0.798
3166.31	0.798
3175.07	0.797
3183.84	0.796
3192.6	0.7953
3201.37	0.795
3210.13	0.7933
3218.89	0.793
3227.66	0.7912
3236.42	0.7902
3245.18	0.79
3253.95	0.787
3262.71	0.785
3271.48	0.7821
3280.24	0.7801
3289	0.7781
3297.77	0.777
3306.53	0.774
3315.29	0.7711
3324.06	0.769
3332.82	0.7611
3341.59	0.76
3350.35	0.7549
3359.11	0.7479
3367.88	0.7398
3376.64	0.7339
3385.4	0.7319
3394.17	0.73
3402.93	0.729
3411.69	0.729
3420.46	0.7258
3429.22	0.7218
3437.99	0.7142
3446.75	0.7114
3455.51	0.7229
3464.28	0.7365
3473.04	0.7421
3481.8	0.7503
3490.57	0.7543
3499.33	0.7606
3508.1	0.767
3516.86	0.7744
3525.62	0.7794
3534.39	0.7838
3543.15	0.7874
3551.91	0.7909
3560.68	0.7954
3569.44	0.8005
3578.21	0.8045
3586.97	0.8075
3595.73	0.8111
3604.5	0.8145
3613.26	0.8206
3622.02	0.8231
3630.79	0.8266
3639.55	0.827
3648.32	0.828
3657.08	0.827
3665.84	0.827
3674.61	0.827
3683.37	0.827
3692.13	0.827
3700.9	0.827
3709.66	0.828
3718.43	0.8288
3727.19	0.829
3735.95	0.829
3744.72	0.829
3753.48	0.828
3762.24	0.8271
3771.01	0.827
3779.77	0.827
3788.54	0.826
3797.3	0.8251
3806.06	0.825
3814.83	0.824
3823.59	0.824
3832.35	0.824
3841.12	0.824
3849.88	0.823
3858.64	0.822
3867.41	0.8219
3876.17	0.821
3884.94	0.819
3893.7	0.819
3902.46	0.8188
3911.23	0.818
3919.99	0.817
3928.75	0.816
3937.52	0.816
3946.28	0.816
3955.05	0.815
3963.81	0.815
3972.57	0.8147
3981.34	0.814
3990.1	0.814
3998.86	0.814
4007.63	0.814
