Infrared Spectrum: HEXANOIC ACID, 3-HYDROXY-2,2-DIMETHYL-, Beta-LACTONE
Formula: C8 H14 O2
CAS: 90112-82-6
Boiling point: 68-70 C AT 15 mmHg
Class: COBLENTZ
Instrument: Not specified, most likely a prism, grating, or hybrid spectrometer.
Sampling: TRANSMISSION
Path length: SMEAR
Resolution: 4
Origin: TENNESSEE EASTMAN COMPANY, RESEARCH LABORATORIES
MICROMETERS	TRANSMITTANCE
2.027	0.996
2.06796	0.996
2.10891	0.998
2.14987	1
2.19082	0.996
2.23178	0.95
2.27274	0.936
2.31369	0.952
2.35465	0.954
2.3956	0.955
2.43656	0.962
2.47752	0.974
2.51847	0.984
2.55943	0.986
2.60038	0.986
2.64134	0.991
2.6823	0.982
2.72325	0.865
2.76421	0.914
2.80516	0.93
2.84612	0.945
2.88708	0.947
2.92803	0.933
2.96899	0.913
3.00994	0.902
3.0509	0.89
3.09186	0.885
3.13281	0.867
3.17377	0.887
3.21472	0.894
3.25568	0.86
3.29664	0.752
3.33759	0.088
3.37855	0.231
3.4195	0.362
3.46046	0.545
3.50142	0.763
3.54237	0.856
3.58333	0.89
3.62428	0.882
3.66524	0.919
3.7062	0.925
3.74715	0.936
3.78811	0.931
3.82906	0.931
3.87002	0.918
3.91098	0.936
3.95193	0.947
3.99289	0.964
4.03384	0.962
4.0748	0.964
4.11576	0.965
4.15671	0.952
4.19767	0.957
4.23862	0.954
4.27958	0.933
4.32054	0.928
4.36149	0.948
4.40245	0.959
4.4434	0.95
4.48436	0.938
4.52532	0.916
4.56627	0.942
4.60723	0.947
4.64818	0.954
4.68914	0.954
4.7301	0.959
4.77105	0.959
4.81201	0.952
4.85296	0.938
4.89392	0.935
4.93488	0.909
4.97583	0.901
5.01679	0.872
5.05774	0.841
5.0987	0.812
5.13966	0.8
5.18061	0.727
5.22157	0.766
5.26252	0.71
5.30348	0.662
5.34444	0.546
5.38539	0.335
5.42635	0.074
5.4673	0.023
5.50826	0.052
5.54922	0.219
5.59017	0.412
5.63113	0.47
5.67209	0.57
5.71304	0.54
5.754	0.594
5.79495	0.674
5.83591	0.691
5.87687	0.747
5.91782	0.822
5.95878	0.839
5.99973	0.853
6.04069	0.85
6.08165	0.838
6.1226	0.836
6.16356	0.848
6.20451	0.865
6.24547	0.867
6.28643	0.85
6.32738	0.822
6.36834	0.848
6.40929	0.851
6.45025	0.875
6.49121	0.873
6.53216	0.87
6.57312	0.846
6.61407	0.809
6.65503	0.781
6.69599	0.66
6.73694	0.391
6.7779	0.204
6.81885	0.247
6.85981	0.359
6.90077	0.483
6.94172	0.597
6.98268	0.603
7.02363	0.686
7.06459	0.684
7.10555	0.56
7.1465	0.282
7.18746	0.356
7.22841	0.431
7.26937	0.432
7.31033	0.522
7.35128	0.684
7.39224	0.698
7.43319	0.666
7.47415	0.724
7.51511	0.674
7.55606	0.608
7.59702	0.514
7.63797	0.509
7.67893	0.507
7.71989	0.628
7.76084	0.749
7.8018	0.8
7.84275	0.783
7.88371	0.725
7.92467	0.717
7.96562	0.662
8.00658	0.603
8.04753	0.603
8.08849	0.536
8.12945	0.461
8.1704	0.55
8.21136	0.62
8.25231	0.538
8.29327	0.335
8.33423	0.258
8.37518	0.328
8.41614	0.419
8.45709	0.497
8.49805	0.557
8.53901	0.597
8.57996	0.587
8.62092	0.529
8.66187	0.413
8.70283	0.282
8.74379	0.17
8.78474	0.144
8.8257	0.189
8.86665	0.284
8.90761	0.32
8.94857	0.231
8.98952	0.134
9.03048	0.091
9.07143	0.144
9.11239	0.252
9.15335	0.275
9.1943	0.308
9.23526	0.359
9.27621	0.354
9.31717	0.277
9.35813	0.172
9.39908	0.17
9.44004	0.296
9.48099	0.463
9.52195	0.55
9.56291	0.567
9.60386	0.528
9.64482	0.541
9.68577	0.57
9.72673	0.563
9.76769	0.614
9.80864	0.7
9.8496	0.729
9.89055	0.722
9.93151	0.72
9.97247	0.739
10.0134	0.747
10.0544	0.732
10.0953	0.669
10.1363	0.577
10.1772	0.538
10.2182	0.591
10.2592	0.686
10.3001	0.735
10.3411	0.761
10.382	0.759
10.423	0.739
10.4639	0.727
10.5049	0.749
10.5459	0.773
10.5868	0.788
10.6278	0.797
10.6687	0.793
10.7097	0.778
10.7506	0.749
10.7916	0.7
10.8325	0.603
10.8735	0.42
10.9145	0.31
10.9554	0.27
10.9964	0.229
11.0373	0.24
11.0783	0.303
11.1192	0.311
11.1602	0.405
11.2011	0.465
11.2421	0.471
11.2831	0.437
11.324	0.374
11.365	0.284
11.4059	0.26
11.4469	0.318
11.4878	0.412
11.5288	0.49
11.5698	0.551
11.6107	0.58
11.6517	0.601
11.6926	0.628
11.7336	0.642
11.7745	0.657
11.8155	0.657
11.8564	0.652
11.8974	0.616
11.9384	0.553
11.9793	0.444
12.0203	0.301
12.0612	0.189
12.1022	0.119
12.1431	0.103
12.1841	0.137
12.225	0.219
12.266	0.298
12.307	0.369
12.3479	0.468
12.3889	0.545
12.4298	0.611
12.4708	0.652
12.5117	0.693
12.5527	0.729
12.5937	0.746
12.6346	0.754
12.6756	0.741
12.7165	0.725
12.7575	0.698
12.7984	0.642
12.8394	0.613
12.8803	0.606
12.9213	0.63
12.9623	0.666
13.0032	0.717
13.0442	0.756
13.0851	0.778
13.1261	0.788
13.167	0.79
13.208	0.787
13.2489	0.768
13.2899	0.747
13.3309	0.713
13.3718	0.66
13.4128	0.618
13.4537	0.587
13.4947	0.577
13.5356	0.579
13.5766	0.589
13.6176	0.628
13.6585	0.689
13.6995	0.741
13.7404	0.775
13.7814	0.797
13.8223	0.802
13.8633	0.807
13.9042	0.81
13.9452	0.816
13.9862	0.822
14.0271	0.826
14.0681	0.827
14.109	0.827
14.15	0.829
14.1909	0.829
14.2319	0.826
14.2728	0.824
14.3138	0.822
14.3548	0.817
14.3957	0.812
14.4367	0.81
14.4776	0.805
14.5186	0.802
14.5595	0.8
14.6005	0.793
14.6415	0.787
14.6824	0.778
14.7234	0.77
14.7643	0.766
14.8053	0.758
14.8462	0.751
14.8872	0.739
14.9281	0.718
14.9691	0.688
15.0101	0.671
15.051	0.65
15.092	0.645
15.1329	0.642
15.1739	0.64
15.2148	0.645
15.2558	0.65
15.2967	0.652
15.3377	0.652
15.3787	0.649
15.4196	0.645
15.4606	0.642
15.5015	0.635
15.5425	0.63
15.5834	0.625
15.6244	0.621
15.6654	0.613
15.7063	0.608
15.7473	0.597
15.7882	0.592
15.8292	0.586
15.8701	0.58
15.9111	0.575
15.952	0.57
15.993	0.568
