Infrared Spectrum: 2-HYDROXYETHYL Alpha,Alpha-DICHLORO PROPIONATE
Formula: C5 H8 Cl2 O3
CAS: 90139-63-2
State: SOLUTION (10% CCl4 FOR 5000-1330, 10% CS2 FOR 1330-625 CM^-^1)
Class: COBLENTZ
Instrument: Not specified, most likely a prism, grating, or hybrid spectrometer.
Sampling: TRANSMISSION
Path length: 0.0113 CM, 0.0110 CM
Resolution: 4
Origin: DOW CHEMICAL COMPANY
MICROMETERS	TRANSMITTANCE
2.055	0.908
2.09614	0.909
2.13727	0.909
2.17841	0.901
2.21954	0.884
2.26068	0.901
2.30182	0.899
2.34295	0.896
2.38409	0.896
2.42522	0.89
2.46636	0.897
2.50749	0.902
2.54863	0.908
2.58977	0.908
2.6309	0.901
2.67204	0.873
2.71317	0.778
2.75431	0.645
2.79545	0.604
2.83658	0.551
2.87772	0.526
2.91885	0.54
2.95999	0.563
3.00112	0.608
3.04226	0.654
3.0834	0.703
3.12453	0.729
3.16567	0.749
3.2068	0.766
3.24794	0.768
3.28908	0.729
3.33021	0.649
3.37135	0.524
3.41248	0.623
3.45362	0.633
3.49475	0.752
3.53589	0.778
3.57703	0.805
3.61816	0.817
3.6593	0.833
3.70043	0.843
3.74157	0.848
3.78271	0.843
3.82384	0.85
3.86498	0.853
3.90611	0.856
3.94725	0.85
3.98838	0.853
4.02952	0.855
4.07066	0.868
4.11179	0.868
4.15293	0.868
4.19406	0.868
4.2352	0.87
4.27634	0.868
4.31747	0.872
4.35861	0.875
4.39974	0.882
4.44088	0.892
4.48201	0.896
4.52315	0.896
4.56429	0.89
4.60542	0.885
4.64656	0.887
4.68769	0.887
4.72883	0.879
4.76997	0.879
4.8111	0.889
4.85224	0.89
4.89337	0.89
4.93451	0.889
4.97564	0.885
5.01678	0.88
5.05792	0.879
5.09905	0.879
5.14019	0.88
5.18132	0.882
5.22246	0.885
5.2636	0.882
5.30473	0.879
5.34587	0.872
5.387	0.865
5.42814	0.856
5.46927	0.848
5.51041	0.812
5.55155	0.763
5.59268	0.666
5.63382	0.359
5.67495	0.097
5.71609	0.052
5.75723	0.16
5.79836	0.511
5.8395	0.701
5.88063	0.771
5.92177	0.822
5.9629	0.834
6.00404	0.838
6.04518	0.836
6.08631	0.826
6.12745	0.812
6.16858	0.798
6.20972	0.747
6.25086	0.683
6.29199	0.63
6.33313	0.603
6.37426	0.563
6.4154	0.494
6.45653	0.468
6.49767	0.54
6.53881	0.603
6.57994	0.642
6.62108	0.706
6.66221	0.747
6.70335	0.759
6.74449	0.744
6.78562	0.684
6.82676	0.613
6.86789	0.442
6.90903	0.366
6.95016	0.522
6.9913	0.64
7.03244	0.637
7.07357	0.594
7.11471	0.575
7.15584	0.568
7.19698	0.516
7.23812	0.349
7.27925	0.507
7.32039	0.577
7.36152	0.64
7.40266	0.649
7.44379	0.649
7.48493	0.645
7.52607	0.637
7.5672	0.621
7.60834	0.562
7.64947	0.502
7.69061	0.398
7.73175	0.281
7.77288	0.175
7.81402	0.095
7.85515	0.047
7.89629	0.035
7.93742	0.035
7.97856	0.064
8.0197	0.097
8.06083	0.168
8.10197	0.306
8.1431	0.431
8.18424	0.505
8.22538	0.565
8.26651	0.604
8.30765	0.657
8.34878	0.706
8.38992	0.73
8.43105	0.737
8.47219	0.741
8.51333	0.73
8.55446	0.715
8.5956	0.71
8.63673	0.705
8.67787	0.684
8.71901	0.642
8.76014	0.548
8.80128	0.327
8.84241	0.112
8.88355	0.045
8.92468	0.093
8.96582	0.178
9.00696	0.286
9.04809	0.347
9.08923	0.304
9.13036	0.216
9.1715	0.122
9.21264	0.069
9.25377	0.049
9.29491	0.051
9.33604	0.044
9.37718	0.078
9.41831	0.168
9.45945	0.289
9.50059	0.393
9.54172	0.461
9.58286	0.507
9.62399	0.541
9.66513	0.574
9.70627	0.597
9.7474	0.594
9.78854	0.551
9.82967	0.5
9.87081	0.458
9.91194	0.442
9.95308	0.448
9.99422	0.48
10.0354	0.56
10.0765	0.625
10.1176	0.679
10.1588	0.679
10.1999	0.669
10.241	0.662
10.2822	0.679
10.3233	0.71
10.3644	0.744
10.4056	0.758
10.4467	0.773
10.4878	0.776
10.529	0.787
10.5701	0.785
10.6113	0.763
10.6524	0.741
10.6935	0.7
10.7347	0.66
10.7758	0.618
10.8169	0.596
10.8581	0.596
10.8992	0.623
10.9403	0.647
10.9815	0.664
11.0226	0.686
11.0637	0.696
11.1049	0.695
11.146	0.678
11.1872	0.655
11.2283	0.633
11.2694	0.591
11.3106	0.541
11.3517	0.504
11.3928	0.495
11.434	0.509
11.4751	0.533
11.5162	0.55
11.5574	0.56
11.5985	0.562
11.6396	0.567
11.6808	0.562
11.7219	0.56
11.7631	0.555
11.8042	0.555
11.8453	0.563
11.8865	0.584
11.9276	0.597
11.9687	0.623
12.0099	0.645
12.051	0.669
12.0921	0.691
12.1333	0.717
12.1744	0.724
12.2156	0.732
12.2567	0.732
12.2978	0.724
12.339	0.724
12.3801	0.715
12.4212	0.7
12.4624	0.667
12.5035	0.638
12.5446	0.579
12.5858	0.512
12.6269	0.502
12.668	0.519
12.7092	0.545
12.7503	0.562
12.7915	0.577
12.8326	0.596
12.8737	0.62
12.9149	0.638
12.956	0.657
12.9971	0.671
13.0383	0.676
13.0794	0.683
13.1205	0.684
13.1617	0.679
13.2028	0.679
13.2439	0.671
13.2851	0.667
13.3262	0.662
13.3674	0.647
13.4085	0.637
13.4496	0.618
13.4908	0.597
13.5319	0.558
13.573	0.511
13.6142	0.465
13.6553	0.412
13.6964	0.386
13.7376	0.374
13.7787	0.388
13.8198	0.415
13.861	0.446
13.9021	0.475
13.9433	0.487
13.9844	0.5
14.0255	0.507
14.0667	0.505
14.1078	0.5
14.1489	0.492
14.1901	0.487
14.2312	0.477
14.2723	0.465
14.3135	0.451
14.3546	0.436
14.3958	0.427
14.4369	0.412
14.478	0.4
14.5192	0.385
14.5603	0.366
14.6014	0.35
14.6426	0.337
14.6837	0.32
14.7248	0.298
14.766	0.279
14.8071	0.26
14.8482	0.241
14.8894	0.221
14.9305	0.194
14.9717	0.16
15.0128	0.117
15.0539	0.097
15.0951	0.078
15.1362	0.059
15.1773	0.068
15.2185	0.068
15.2596	0.073
15.3007	0.1
15.3419	0.124
15.383	0.144
15.4241	0.168
15.4653	0.194
15.5064	0.211
15.5476	0.233
15.5887	0.252
15.6298	0.257
15.671	0.26
15.7121	0.26
15.7532	0.258
15.7944	0.258
15.8355	0.26
15.8766	0.252
15.9178	0.252
