Infrared Spectrum: 4-Fluoro-2-(trifluoromethyl)benzaldehyde
Formula: C 8 H 4 F 4 O
CAS: 90176-80-0
State: gas
Origin: EPA-IR VAPOR PHASE LIBRARY
1/CM	ABSORBANCE
549.8	0.01838
559.445	0.01204
569.09	0.00706
578.734	0.00617
588.379	0.00357
598.024	0.00374
607.669	0.00439
617.313	0.00479
626.958	0.00661
636.603	0.01313
646.248	0.01658
655.893	0.01623
665.537	0.0223
675.182	0.01643
684.827	0.00411
694.472	0.0032
704.116	0.00353
713.761	0.00326
723.406	0.00418
733.051	0.01135
742.695	0.02399
752.34	0.01428
761.985	0.00749
771.63	0.00904
781.275	0.01289
790.919	0.02109
800.564	0.02165
810.209	0.01922
819.854	0.02327
829.498	0.03763
839.143	0.03115
848.788	0.01291
858.433	0.00675
868.078	0.01056
877.722	0.03693
887.367	0.08117
897.012	0.06196
906.657	0.08886
916.301	0.08912
925.946	0.05056
935.591	0.02112
945.236	0.00939
954.88	0.00603
964.525	0.00514
974.17	0.00461
983.815	0.00484
993.46	0.00551
1003.1	0.00498
1012.75	0.00474
1022.39	0.00616
1032.04	0.01555
1041.68	0.0575
1051.33	0.06488
1060.97	0.01866
1070.62	0.00899
1080.26	0.00704
1089.91	0.0093
1099.55	0.01204
1109.2	0.02103
1118.84	0.03624
1128.49	0.05847
1138.13	0.15949
1147.78	0.37281
1157.42	0.37384
1167.07	0.29268
1176.71	0.45582
1186.36	0.32795
1196	0.10257
1205.64	0.09173
1215.29	0.17918
1224.93	0.14136
1234.58	0.04282
1244.22	0.03032
1253.87	0.05927
1263.51	0.10132
1273.16	0.09833
1282.8	0.13633
1292.45	0.16917
1302.09	0.18737
1311.74	0.3494
1321.38	0.36642
1331.03	0.10226
1340.67	0.02539
1350.32	0.01546
1359.96	0.01186
1369.61	0.01028
1379.25	0.00954
1388.9	0.01136
1398.54	0.01637
1408.18	0.02338
1417.83	0.045
1427.47	0.0888
1437.12	0.07443
1446.76	0.02118
1456.41	0.01127
1466.05	0.01122
1475.7	0.01754
1485.34	0.04467
1494.99	0.06014
1504.63	0.0297
1514.28	0.00961
1523.92	0.00738
1533.57	0.0067
1543.21	0.00633
1552.86	0.00751
1562.5	0.0116
1572.15	0.02131
1581.79	0.04468
1591.44	0.08037
1601.08	0.104
1610.73	0.12355
1620.37	0.09464
1630.01	0.03151
1639.66	0.01422
1649.3	0.01086
1658.95	0.0112
1668.59	0.01412
1678.24	0.0173
1687.88	0.02301
1697.53	0.05326
1707.17	0.16537
1716.82	0.22458
1726.46	0.10392
1736.11	0.03873
1745.75	0.02664
1755.4	0.01362
1765.04	0.01076
1774.69	0.00993
1784.33	0.00797
1793.98	0.00703
1803.62	0.00507
1813.27	0.00341
1822.91	0.00277
1832.55	0.00281
1842.2	0.00238
1851.84	0.00242
1861.49	0.0023
1871.13	0.00233
1880.78	0.00255
1890.42	0.00269
1900.07	0.00262
1909.71	0.00303
1919.36	0.00444
1929	0.00399
1938.65	0.00292
1948.29	0.00313
1957.94	0.00388
1967.58	0.00332
1977.23	0.00287
1986.87	0.0022021
1996.52	0.0019611
2006.16	0.0016487
2015.81	0.0017986
2025.45	0.0017229
2035.1	0.0018071
2044.74	0.0019277
2054.38	0.00248
2064.03	0.00262
2073.67	0.0019005
2083.32	0.0015279
2092.96	0.0015664
2102.61	0.0016007
2112.25	0.00235
2121.9	0.00289
2131.54	0.0027
2141.19	0.00237
2150.83	0.0019554
2160.48	0.0014473
2170.12	0.0015898
2179.77	0.0018304
2189.41	0.0014656
2199.06	0.0014852
2208.7	0.0018437
2218.35	0.002183
2227.99	0.0021043
2237.64	0.0020252
2247.28	0.0019219
2256.92	0.0021462
2266.57	0.0020212
2276.21	0.0018285
2285.86	0.002095
2295.5	0.0021442
2305.15	0.0018927
2314.79	0.0017465
2324.44	0.0021524
2334.08	0.00268
2343.73	0.0023
2353.37	0.00248
2363.02	0.00282
2372.66	0.00225
2382.31	0.0020178
2391.95	0.001722
2401.6	0.0017172
2411.24	0.0017694
2420.89	0.0018555
2430.53	0.0021628
2440.18	0.0022006
2449.82	0.0018351
2459.47	0.0015784
2469.11	0.0017118
2478.75	0.0017607
2488.4	0.0020838
2498.04	0.0022117
2507.69	0.0023
2517.33	0.00242
2526.98	0.00237
2536.62	0.0019229
2546.27	0.0018751
2555.91	0.0020748
2565.56	0.0021984
2575.2	0.0023
2584.85	0.00245
2594.49	0.0022009
2604.14	0.00252
2613.78	0.00265
2623.43	0.0016622
2633.07	0.0013284
2642.72	0.0013569
2652.36	0.0015942
2662.01	0.0018175
2671.65	0.00222
2681.29	0.0022111
2690.94	0.00286
2700.58	0.00287
2710.23	0.00355
2719.87	0.00468
2729.52	0.00627
2739.16	0.00511
2748.81	0.00416
2758.45	0.0042
2768.1	0.00578
2777.74	0.00967
2787.39	0.01294
2797.03	0.01021
2806.68	0.00721
2816.32	0.00669
2825.97	0.00778
2835.61	0.0069
2845.26	0.0065
2854.9	0.00602
2864.55	0.00648
2874.19	0.0088
2883.84	0.01412
2893.48	0.0236
2903.12	0.02759
2912.77	0.02224
2922.41	0.01197
2932.06	0.00765
2941.7	0.005
2951.35	0.00342
2960.99	0.00284
2970.64	0.0020823
2980.28	0.00285
2989.93	0.00246
2999.57	0.0018389
3009.22	0.0019651
3018.86	0.00238
3028.51	0.0018339
3038.15	0.001881
3047.8	0.0018636
3057.44	0.0020434
3067.09	0.00254
3076.73	0.00356
3086.38	0.00592
3096.02	0.00546
3105.67	0.00302
3115.31	0.00255
3124.95	0.0022106
3134.6	0.0015275
3144.24	0.00122124
3153.89	0.001121
3163.53	0.0014018
3173.18	0.0012347
3182.82	0.0011877
3192.47	0.000957
3202.11	0.0015587
3211.76	0.001015
3221.4	0.001103
3231.05	0.001081
3240.69	0.000868
3250.34	0.000842
3259.98	0.001028
3269.63	0.000629
3279.27	0.000653
3288.92	0.000958
3298.56	0.00129579
3308.21	0.000867
3317.85	0.000957
3327.49	0.001088
3337.14	0.001049
3346.78	0.000559
3356.43	0.000523
3366.07	0.001002
3375.72	0.001086
3385.36	0.0017264
3395.01	0.00323
3404.65	0.00482
3414.3	0.00539
3423.94	0.00311
3433.59	0.001998
3443.23	0.0019662
3452.88	0.0015144
3462.52	0.00107
3472.17	0.00126836
3481.81	0.001002
3491.46	0.0011445
3501.1	0.00124246
3510.75	0.000338
3520.39	0.000937
3530.04	0.000355
3539.68	0.000854
3549.32	0.000798
3558.97	0.00093
3568.61	0.000463
3578.26	0.000392
3587.9	0.000709
3597.55	0.000487
3607.19	0.000508
3616.84	0.000936
3626.48	0.000939
3636.13	0.000646
3645.77	0.000551
3655.42	0.000831
3665.06	0.000622
3674.71	0.000816
3684.35	0.000675
3694	0.000807
3703.64	0.000633
3713.29	0.001343
3722.93	0.001083
3732.58	0.00086
3742.22	0.0011709
3751.86	0.000648
3761.51	0.00112
3771.15	0.001013
3780.8	0.000667
3790.44	0.000888
3800.09	0.001006
3809.73	0.000951
3819.38	0.00128657
3829.02	0.000724
3838.67	0.000634
3848.31	0.000945
3857.96	0.000619
3867.6	0.001095
3877.25	0.0011402
3886.89	0.000705
3896.54	0.00045
3906.18	0.000945
3915.83	0.000972
3925.47	0.000245
3935.12	0.000883
3944.76	0.000583
3954.41	0.00128159
3964.05	0.000608
3973.69	0.0011244
3983.34	0.0011636
3992.98	0.000996
