Infrared Spectrum: 3-PENTENOIC ACID, 2-HYDROXYMETHYLENE-4-METHYL-, METHYL ESTER
Formula: C8 H12 O3
CAS: 90199-77-2
Class: COBLENTZ
Instrument: Not specified, most likely a prism, grating, or hybrid spectrometer.
Sampling: TRANSMISSION
Path length: SMEAR
Resolution: 4
Origin: TENNESSEE EASTMAN COMPANY, RESEARCH LABORATORIES
MICROMETERS	TRANSMITTANCE
2.034	1
2.07493	1.001
2.11586	1.001
2.1568	1.001
2.19773	1
2.23866	0.994
2.27959	0.993
2.32053	0.993
2.36146	0.993
2.40239	0.993
2.44332	0.993
2.48426	0.993
2.52519	0.993
2.56612	0.994
2.60705	0.993
2.64799	0.994
2.68892	0.991
2.72985	0.986
2.77078	0.951
2.81172	0.91
2.85265	0.864
2.89358	0.818
2.93451	0.792
2.97545	0.768
3.01638	0.766
3.05731	0.765
3.09824	0.765
3.13918	0.765
3.18011	0.761
3.22104	0.739
3.26197	0.684
3.30291	0.572
3.34384	0.399
3.38477	0.435
3.4257	0.562
3.46664	0.622
3.50757	0.763
3.5485	0.797
3.58943	0.828
3.63037	0.831
3.6713	0.862
3.71223	0.883
3.75316	0.89
3.7941	0.898
3.83503	0.91
3.87596	0.914
3.91689	0.922
3.95783	0.924
3.99876	0.922
4.03969	0.926
4.08062	0.927
4.12156	0.927
4.16249	0.927
4.20342	0.929
4.24435	0.931
4.28529	0.931
4.32622	0.934
4.36715	0.946
4.40808	0.951
4.44902	0.951
4.48995	0.953
4.53088	0.953
4.57181	0.953
4.61275	0.953
4.65368	0.953
4.69461	0.953
4.73554	0.953
4.77648	0.953
4.81741	0.953
4.85834	0.951
4.89927	0.951
4.94021	0.951
4.98114	0.953
5.02207	0.941
5.063	0.929
5.10394	0.931
5.14487	0.931
5.1858	0.933
5.22673	0.933
5.26767	0.933
5.3086	0.934
5.34953	0.936
5.39046	0.936
5.4314	0.934
5.47233	0.931
5.51326	0.915
5.55419	0.902
5.59513	0.869
5.63606	0.783
5.67699	0.62
5.71792	0.451
5.75886	0.358
5.79979	0.331
5.84072	0.312
5.88165	0.322
5.92259	0.221
5.96352	0.07
6.00445	0.061
6.04538	0.138
6.08632	0.259
6.12725	0.32
6.16818	0.284
6.20911	0.243
6.25005	0.391
6.29098	0.538
6.33191	0.643
6.37284	0.716
6.41378	0.77
6.45471	0.785
6.49564	0.806
6.53657	0.811
6.57751	0.814
6.61844	0.818
6.65937	0.816
6.7003	0.778
6.74124	0.727
6.78217	0.572
6.8231	0.38
6.86403	0.145
6.90497	0.109
6.9459	0.437
6.98683	0.61
7.02776	0.689
7.0687	0.679
7.10963	0.578
7.15056	0.301
7.19149	0.197
7.23243	0.198
7.27336	0.296
7.31429	0.408
7.35522	0.421
7.39616	0.408
7.43709	0.394
7.47802	0.198
7.51895	0.128
7.55989	0.19
7.60082	0.368
7.64175	0.421
7.68268	0.418
7.72362	0.341
7.76455	0.209
7.80548	0.099
7.84641	0.078
7.88735	0.164
7.92828	0.293
7.96921	0.411
8.01014	0.473
8.05108	0.475
8.09201	0.449
8.13294	0.312
8.17387	0.133
8.21481	0.085
8.25574	0.08
8.29667	0.054
8.3376	0.037
8.37854	0.048
8.41947	0.133
8.4604	0.234
8.50133	0.269
8.54227	0.269
8.5832	0.253
8.62413	0.217
8.66506	0.147
8.706	0.068
8.74693	0.049
8.78786	0.087
8.82879	0.207
8.86973	0.324
8.91066	0.423
8.95159	0.461
8.99252	0.461
9.03346	0.445
9.07439	0.427
9.11532	0.471
9.15625	0.584
9.19719	0.655
9.23812	0.687
9.27905	0.689
9.31998	0.689
9.36092	0.679
9.40185	0.624
9.44278	0.524
9.48371	0.469
9.52465	0.562
9.56558	0.665
9.60651	0.715
9.64744	0.734
9.68837	0.739
9.72931	0.744
9.77024	0.744
9.81117	0.744
9.8521	0.73
9.89304	0.701
9.93397	0.644
9.9749	0.524
10.0158	0.406
10.0568	0.375
10.0977	0.389
10.1386	0.464
10.1796	0.536
10.2205	0.588
10.2614	0.59
10.3024	0.574
10.3433	0.535
10.3842	0.495
10.4252	0.464
10.4661	0.459
10.507	0.524
10.548	0.622
10.5889	0.725
10.6298	0.77
10.6708	0.804
10.7117	0.821
10.7526	0.833
10.7936	0.838
10.8345	0.842
10.8754	0.843
10.9163	0.849
10.9573	0.852
10.9982	0.855
11.0391	0.857
11.0801	0.857
11.121	0.857
11.1619	0.855
11.2029	0.855
11.2438	0.854
11.2847	0.852
11.3257	0.852
11.3666	0.85
11.4075	0.852
11.4485	0.849
11.4894	0.843
11.5303	0.831
11.5713	0.811
11.6122	0.777
11.6531	0.737
11.6941	0.722
11.735	0.706
11.7759	0.668
11.8169	0.6
11.8578	0.518
11.8987	0.447
11.9397	0.394
11.9806	0.349
12.0215	0.308
12.0625	0.279
12.1034	0.264
12.1443	0.281
12.1853	0.346
12.2262	0.404
12.2671	0.425
12.3081	0.427
12.349	0.428
12.3899	0.43
12.4309	0.444
12.4718	0.471
12.5127	0.512
12.5536	0.564
12.5946	0.622
12.6355	0.665
12.6764	0.703
12.7174	0.725
12.7583	0.732
12.7992	0.735
12.8402	0.734
12.8811	0.727
12.922	0.713
12.963	0.703
13.0039	0.701
13.0448	0.701
13.0858	0.701
13.1267	0.715
13.1676	0.74
13.2086	0.763
13.2495	0.773
13.2904	0.782
13.3314	0.785
13.3723	0.789
13.4132	0.787
13.4542	0.773
13.4951	0.728
13.536	0.667
13.577	0.619
13.6179	0.61
13.6588	0.644
13.6998	0.711
13.7407	0.746
13.7816	0.763
13.8226	0.783
13.8635	0.801
13.9044	0.809
13.9454	0.816
13.9863	0.823
14.0272	0.828
14.0682	0.831
14.1091	0.831
14.15	0.833
14.1909	0.833
14.2319	0.833
14.2728	0.835
14.3137	0.835
14.3547	0.835
14.3956	0.835
14.4365	0.835
14.4775	0.835
14.5184	0.835
14.5593	0.833
14.6003	0.833
14.6412	0.831
14.6821	0.83
14.7231	0.828
14.764	0.825
14.8049	0.825
14.8459	0.821
14.8868	0.818
14.9277	0.814
14.9687	0.809
15.0096	0.804
15.0505	0.804
15.0915	0.802
15.1324	0.801
15.1733	0.801
15.2143	0.795
15.2552	0.792
15.2961	0.787
15.3371	0.787
15.378	0.783
15.4189	0.782
15.4599	0.78
15.5008	0.777
15.5417	0.771
15.5827	0.771
15.6236	0.771
15.6645	0.766
15.7055	0.759
15.7464	0.751
15.7873	0.746
15.8282	0.744
15.8692	0.74
15.9101	0.739
15.951	0.739
15.992	0.737
