Infrared Spectrum: p-NITRO-BENZOIC ACID ANHYDRIDE
Formula: C14 H8 N2 O7
CAS: 902-47-6
State: SOLID (KBr PELLET)
Melting point: 192 C
Class: COBLENTZ
Instrument: Not specified, most likely a prism, grating, or hybrid spectrometer.
Sampling: TRANSMISSION
Resolution: 4
Origin: TENNESSEE EASTMAN COMPANY, RESEARCH LABORATORIES
MICROMETERS	TRANSMITTANCE
2.034	0.94
2.07494	0.943
2.11587	0.947
2.15681	0.947
2.19774	0.947
2.23868	0.947
2.27961	0.948
2.32055	0.948
2.36148	0.948
2.40242	0.95
2.44335	0.95
2.48429	0.95
2.52523	0.952
2.56616	0.95
2.6071	0.95
2.64803	0.952
2.68897	0.948
2.7299	0.902
2.77084	0.798
2.81177	0.766
2.85271	0.72
2.89364	0.677
2.93458	0.687
2.97551	0.755
3.01645	0.803
3.05739	0.825
3.09832	0.839
3.13926	0.839
3.18019	0.825
3.22113	0.489
3.26206	0.689
3.303	0.853
3.34393	0.854
3.38487	0.853
3.4258	0.846
3.46674	0.822
3.50768	0.885
3.54861	0.907
3.58955	0.907
3.63048	0.916
3.67142	0.923
3.71235	0.921
3.75329	0.921
3.79422	0.928
3.83516	0.928
3.87609	0.93
3.91703	0.933
3.95796	0.936
3.9989	0.938
4.03984	0.938
4.08077	0.938
4.12171	0.924
4.16264	0.935
4.20358	0.935
4.24451	0.935
4.28545	0.933
4.32638	0.931
4.36732	0.926
4.40825	0.936
4.44919	0.943
4.49013	0.945
4.53106	0.945
4.572	0.945
4.61293	0.948
4.65387	0.948
4.6948	0.945
4.73574	0.941
4.77667	0.935
4.81761	0.928
4.85854	0.916
4.89948	0.912
4.94041	0.912
4.98135	0.918
5.02229	0.919
5.06322	0.889
5.10416	0.88
5.14509	0.885
5.18603	0.902
5.22696	0.899
5.2679	0.872
5.30883	0.861
5.34977	0.832
5.3907	0.822
5.43164	0.819
5.47258	0.72
5.51351	0.515
5.55445	0.015
5.59538	0.168
5.63632	0.619
5.67725	0.793
5.71819	0.73
5.75912	0.197
5.80006	0.145
5.84099	0.687
5.88193	0.721
5.92286	0.791
5.9638	0.79
6.00474	0.791
6.04567	0.784
6.08661	0.75
6.12754	0.701
6.16848	0.656
6.20941	0.284
6.25035	0.336
6.29128	0.629
6.33222	0.658
6.37315	0.622
6.41409	0.399
6.45503	0.058
6.49596	0.029
6.5369	0.09
6.57783	0.494
6.61877	0.639
6.6597	0.701
6.70064	0.725
6.74157	0.766
6.78251	0.769
6.82344	0.781
6.86438	0.788
6.90531	0.796
6.94625	0.779
6.98719	0.755
7.02812	0.598
7.06906	0.552
7.10999	0.59
7.15093	0.656
7.19186	0.675
7.2328	0.619
7.27373	0.546
7.31467	0.47
7.3556	0.37
7.39654	0.208
7.43748	0.049
7.47841	0.356
7.51935	0.399
7.56028	0.1
7.60122	0.109
7.64215	0.46
7.68309	0.513
7.72402	0.559
7.76496	0.563
7.80589	0.517
7.84683	0.481
7.88776	0.546
7.9287	0.527
7.96964	0.361
8.01057	0.211
8.05151	0.136
8.09244	0.039
8.13338	0.027
8.17431	0.027
8.21525	0.035
8.25618	0.04
8.29712	0.01
8.33805	0.204
8.37899	0.5
8.41993	0.61
8.46086	0.486
8.5018	0.238
8.54273	0.302
8.58367	0.525
8.6246	0.655
8.66554	0.691
8.70647	0.706
8.74741	0.716
8.78834	0.715
8.82928	0.699
8.87021	0.658
8.91115	0.518
8.95209	0.329
8.99302	0.556
9.03396	0.585
9.07489	0.587
9.11583	0.5
9.15676	0.29
9.1977	0.121
9.23863	0.037
9.27957	0.035
9.3205	0.037
9.36144	0.049
9.40238	0.08
9.44331	0.093
9.48425	0.069
9.52518	0.052
9.56612	0.049
9.60705	0.056
9.64799	0.109
9.68892	0.325
9.72986	0.494
9.77079	0.571
9.81173	0.624
9.85266	0.447
9.8936	0.1
9.93454	0.066
9.97547	0.098
10.0164	0.274
10.0573	0.455
10.0983	0.576
10.1392	0.619
10.1801	0.645
10.2211	0.687
10.262	0.696
10.303	0.679
10.3439	0.733
10.3848	0.769
10.4258	0.79
10.4667	0.798
10.5076	0.805
10.5486	0.813
10.5895	0.824
10.6304	0.831
10.6714	0.836
10.7123	0.841
10.7532	0.846
10.7942	0.849
10.8351	0.853
10.8761	0.856
10.917	0.856
10.9579	0.858
10.9989	0.86
11.0398	0.861
11.0807	0.863
11.1217	0.858
11.1626	0.849
11.2035	0.832
11.2445	0.819
11.2854	0.8
11.3263	0.752
11.3673	0.619
11.4082	0.37
11.4491	0.174
11.4901	0.378
11.531	0.578
11.572	0.527
11.6129	0.252
11.6538	0.076
11.6948	0.098
11.7357	0.255
11.7766	0.453
11.8176	0.587
11.8585	0.581
11.8994	0.609
11.9404	0.677
11.9813	0.725
12.0222	0.757
12.0632	0.769
12.1041	0.776
12.145	0.776
12.186	0.776
12.2269	0.778
12.2679	0.786
12.3088	0.795
12.3497	0.798
12.3907	0.8
12.4316	0.8
12.4725	0.781
12.5135	0.745
12.5544	0.645
12.5953	0.508
12.6363	0.39
12.6772	0.416
12.7181	0.59
12.7591	0.682
12.8	0.769
12.841	0.803
12.8819	0.805
12.9228	0.773
12.9638	0.774
13.0047	0.807
13.0456	0.825
13.0866	0.837
13.1275	0.848
13.1684	0.848
13.2094	0.848
13.2503	0.848
13.2912	0.844
13.3322	0.844
13.3731	0.843
13.414	0.841
13.455	0.837
13.4959	0.829
13.5369	0.822
13.5778	0.808
13.6187	0.791
13.6597	0.769
13.7006	0.721
13.7415	0.651
13.7825	0.542
13.8234	0.414
13.8643	0.308
13.9053	0.233
13.9462	0.174
13.9871	0.117
14.0281	0.076
14.069	0.078
14.1099	0.162
14.1509	0.257
14.1918	0.32
14.2328	0.399
14.2737	0.513
14.3146	0.626
14.3556	0.686
14.3965	0.721
14.4374	0.735
14.4784	0.747
14.5193	0.757
14.5602	0.762
14.6012	0.767
14.6421	0.769
14.683	0.769
14.724	0.767
14.7649	0.766
14.8059	0.761
14.8468	0.755
14.8877	0.747
14.9287	0.723
14.9696	0.699
15.0105	0.682
15.0515	0.684
15.0924	0.694
15.1333	0.697
15.1743	0.694
15.2152	0.679
15.2561	0.662
15.2971	0.641
15.338	0.626
15.3789	0.619
15.4199	0.619
15.4608	0.621
15.5018	0.624
15.5427	0.624
15.5836	0.624
15.6246	0.621
15.6655	0.614
15.7064	0.604
15.7474	0.597
15.7883	0.59
15.8292	0.58
15.8702	0.571
15.9111	0.558
15.952	0.542
15.993	0.53
