Infrared Spectrum: VALERAMIDE, 3-HYDROXY-2,2,4-TRIMETHYL
Formula: C8 H17 N O2
CAS: 90227-43-3
State: SOLID (KBr PELLET)
Melting point: 124-126 C
Class: COBLENTZ
Instrument: Not specified, most likely a prism, grating, or hybrid spectrometer.
Sampling: TRANSMISSION
Resolution: 4
Origin: TENNESSEE EASTMAN COMPANY, RESEARCH LABORATORIES
MICROMETERS	TRANSMITTANCE
2.027	0.9
2.06788	0.909
2.10875	0.919
2.14963	0.919
2.1905	0.921
2.23138	0.917
2.27226	0.912
2.31313	0.917
2.35401	0.922
2.39488	0.919
2.43576	0.919
2.47664	0.922
2.51751	0.924
2.55839	0.924
2.59926	0.928
2.64014	0.924
2.68102	0.924
2.72189	0.91
2.76277	0.854
2.80365	0.779
2.84452	0.565
2.8854	0.397
2.92627	0.16
2.96715	0.025
3.00803	0.039
3.0489	0.107
3.08978	0.172
3.13065	0.126
3.17153	0.308
3.21241	0.515
3.25328	0.626
3.29416	0.686
3.33503	0.333
3.37591	0.337
3.41679	0.436
3.45766	0.426
3.49854	0.734
3.53941	0.773
3.58029	0.761
3.62117	0.815
3.66204	0.832
3.70292	0.821
3.74379	0.83
3.78467	0.851
3.82555	0.89
3.86642	0.897
3.9073	0.898
3.94817	0.928
3.98905	0.931
4.02993	0.936
4.0708	0.938
4.11168	0.941
4.15256	0.948
4.19343	0.943
4.23431	0.94
4.27518	0.943
4.31606	0.945
4.35694	0.946
4.39781	0.95
4.43869	0.957
4.47956	0.958
4.52044	0.96
4.56132	0.96
4.60219	0.962
4.64307	0.964
4.68394	0.964
4.72482	0.96
4.7657	0.964
4.80657	0.969
4.84745	0.962
4.88832	0.965
4.9292	0.964
4.97008	0.96
5.01095	0.972
5.05183	0.96
5.0927	0.96
5.13358	0.96
5.17446	0.952
5.21533	0.958
5.25621	0.96
5.29708	0.958
5.33796	0.95
5.37884	0.958
5.41971	0.96
5.46059	0.958
5.50147	0.955
5.54234	0.948
5.58322	0.94
5.62409	0.928
5.66497	0.914
5.70585	0.888
5.74672	0.859
5.7876	0.832
5.82847	0.787
5.86935	0.715
5.91023	0.489
5.9511	0.203
5.99198	0.046
6.03285	0.018
6.07373	0.107
6.11461	0.243
6.15548	0.268
6.19636	0.15
6.23723	0.09
6.27811	0.126
6.31899	0.308
6.35986	0.57
6.40074	0.662
6.44161	0.724
6.48249	0.744
6.52337	0.768
6.56424	0.78
6.60512	0.784
6.64599	0.775
6.68687	0.736
6.72775	0.587
6.76862	0.405
6.8095	0.356
6.85038	0.398
6.89125	0.375
6.93213	0.597
6.973	0.642
7.01388	0.589
7.05476	0.428
7.09563	0.292
7.13651	0.171
7.17738	0.193
7.21826	0.349
7.25914	0.41
7.30001	0.462
7.34089	0.349
7.38176	0.397
7.42264	0.431
7.46352	0.446
7.50439	0.517
7.54527	0.601
7.58614	0.662
7.62702	0.659
7.6679	0.549
7.70877	0.414
7.74965	0.541
7.79052	0.642
7.8314	0.696
7.87228	0.708
7.91315	0.708
7.95403	0.698
7.9949	0.707
8.03578	0.72
8.07666	0.739
8.11753	0.746
8.15841	0.748
8.19929	0.738
8.24016	0.715
8.28104	0.681
8.32191	0.638
8.36279	0.64
8.40367	0.657
8.44454	0.547
8.48542	0.491
8.52629	0.611
8.56717	0.693
8.60805	0.744
8.64892	0.78
8.6898	0.794
8.73067	0.799
8.77155	0.789
8.81243	0.787
8.8533	0.736
8.89418	0.556
8.93505	0.361
8.97593	0.58
9.01681	0.708
9.05768	0.779
9.09856	0.804
9.13943	0.785
9.18031	0.816
9.22119	0.845
9.26206	0.856
9.30294	0.866
9.34381	0.863
9.38469	0.832
9.42557	0.751
9.46644	0.671
9.50732	0.731
9.5482	0.792
9.58907	0.808
9.62995	0.792
9.67082	0.755
9.7117	0.595
9.75258	0.357
9.79345	0.638
9.83433	0.782
9.8752	0.797
9.91608	0.78
9.95696	0.708
9.99783	0.5
10.0387	0.212
10.0796	0.354
10.1205	0.529
10.1613	0.405
10.2022	0.284
10.2431	0.568
10.284	0.739
10.3248	0.803
10.3657	0.837
10.4066	0.809
10.4475	0.825
10.4883	0.82
10.5292	0.839
10.5701	0.854
10.611	0.861
10.6518	0.861
10.6927	0.799
10.7336	0.65
10.7745	0.57
10.8154	0.719
10.8562	0.785
10.8971	0.78
10.938	0.84
10.9789	0.888
11.0197	0.907
11.0606	0.916
11.1015	0.902
11.1424	0.88
11.1832	0.803
11.2241	0.746
11.265	0.813
11.3059	0.861
11.3467	0.897
11.3876	0.917
11.4285	0.917
11.4694	0.912
11.5102	0.907
11.5511	0.914
11.592	0.928
11.6329	0.933
11.6738	0.928
11.7146	0.931
11.7555	0.924
11.7964	0.924
11.8373	0.924
11.8781	0.916
11.919	0.907
11.9599	0.895
12.0008	0.881
12.0416	0.866
12.0825	0.859
12.1234	0.859
12.1643	0.861
12.2051	0.859
12.246	0.837
12.2869	0.823
12.3278	0.809
12.3686	0.785
12.4095	0.75
12.4504	0.782
12.4913	0.823
12.5321	0.847
12.573	0.866
12.6139	0.878
12.6548	0.883
12.6957	0.886
12.7365	0.883
12.7774	0.873
12.8183	0.871
12.8592	0.859
12.9	0.849
12.9409	0.851
12.9818	0.852
13.0227	0.839
13.0635	0.828
13.1044	0.818
13.1453	0.794
13.1862	0.782
13.227	0.765
13.2679	0.758
13.3088	0.738
13.3497	0.736
13.3905	0.731
13.4314	0.726
13.4723	0.714
13.5132	0.708
13.554	0.707
13.5949	0.712
13.6358	0.724
13.6767	0.748
13.7176	0.767
13.7584	0.772
13.7993	0.777
13.8402	0.777
13.8811	0.78
13.9219	0.777
13.9628	0.772
14.0037	0.768
14.0446	0.772
14.0854	0.765
14.1263	0.753
14.1672	0.748
14.2081	0.741
14.2489	0.732
14.2898	0.72
14.3307	0.714
14.3716	0.707
14.4124	0.696
14.4533	0.688
14.4942	0.676
14.5351	0.666
14.576	0.655
14.6168	0.648
14.6577	0.636
14.6986	0.621
14.7395	0.607
14.7803	0.594
14.8212	0.578
14.8621	0.566
14.903	0.549
14.9438	0.542
14.9847	0.532
15.0256	0.503
15.0665	0.481
15.1073	0.462
15.1482	0.45
15.1891	0.443
15.23	0.438
15.2708	0.434
15.3117	0.431
15.3526	0.429
15.3935	0.429
15.4343	0.429
15.4752	0.431
15.5161	0.434
15.557	0.44
15.5979	0.445
15.6387	0.45
15.6796	0.46
15.7205	0.476
15.7614	0.482
15.8022	0.5
15.8431	0.51
15.884	0.527
15.9249	0.541
15.9657	0.547
