Infrared Spectrum: Diethylamine, 2,2'-dimethoxy-1,1'-dimethyl-,
Formula: C8 H19 N O2
CAS: 90225-75-5
State: LIQUID (NEAT)
Boiling point: 176-178 C
Class: COBLENTZ III
Instrument: BAIRD (GRATING)
Instrument parameters: NaCl PRISM
Path length: 0.003 CM (CAPILLARY)
Resolution: 2
Origin: WYANDOTTE CHEMICALS CORP.
1/CM	TRANSMITTANCE
625.217	0.6818
634.134	0.7139
643.052	0.7369
651.969	0.737
660.887	0.7251
669.804	0.7189
678.722	0.692
687.639	0.6413
696.556	0.5835
705.474	0.5178
714.391	0.4542
723.309	0.3898
732.226	0.3334
741.144	0.2815
750.061	0.2438
758.978	0.2601
767.896	0.3234
776.813	0.4113
785.731	0.4901
794.648	0.283
803.565	0.6978
812.483	0.7091
821.4	0.7281
830.318	0.7311
839.235	0.6356
848.153	0.4737
857.07	0.4968
865.987	0.5641
874.905	0.6275
883.822	0.6392
892.74	0.6228
901.657	0.5177
910.575	0.346
919.492	0.3889
928.409	0.3971
937.327	0.3243
946.244	0.3171
955.162	0.2837
964.079	0.1477
972.997	0.3759
981.914	0.5465
990.831	0.5375
999.749	0.3233
1008.67	0.4646
1017.58	0.5871
1026.5	0.6084
1035.42	0.5993
1044.34	0.5506
1053.25	0.451
1062.17	0.2439
1071.09	0.2369
1080.01	0.0645
1088.92	0.0174
1097.84	0.0127
1106.76	0.0127
1115.68	0.0131
1124.59	0.0164
1133.51	0.0203
1142.43	0.026
1151.34	0.0252
1160.26	0.0285
1169.18	0.0572
1178.1	0.0963
1187.01	0.1447
1195.93	0.066
1204.85	0.0475
1213.77	0.2317
1222.68	0.5018
1231.6	0.5603
1240.52	0.4734
1249.44	0.4072
1258.35	0.4412
1267.27	0.5727
1276.19	0.6566
1285.11	0.6406
1294.02	0.5866
1302.94	0.5716
1311.86	0.5306
1320.78	0.4979
1329.69	0.435
1338.61	0.3907
1347.53	0.3125
1356.45	0.3343
1365.36	0.3109
1374.28	0.1842
1383.2	0.1812
1392.12	0.2151
1401.03	0.4602
1409.95	0.6031
1418.87	0.6416
1427.79	0.6093
1436.7	0.4149
1445.62	0.1848
1454.54	0.06
1463.45	0.0428
1472.37	0.0579
1481.29	0.084
1490.21	0.125
1499.12	0.3338
1508.04	0.5298
1516.96	0.6685
1525.88	0.7425
1534.79	0.7912
1543.71	0.8108
1552.63	0.8259
1561.55	0.8263
1570.46	0.8377
1579.38	0.8378
1588.3	0.8447
1597.22	0.8487
1606.13	0.8477
1615.05	0.8469
1623.97	0.8468
1632.89	0.8496
1641.8	0.8561
1650.72	0.8614
1659.64	0.8665
1668.56	0.8659
1677.47	0.8737
1686.39	0.8877
1695.31	0.8935
1704.23	0.8964
1713.14	0.9019
1722.06	0.9075
1730.98	0.913
1739.89	0.9197
1748.81	0.9291
1757.73	0.9392
1766.65	0.9473
1775.56	0.9505
1784.48	0.9504
1793.4	0.9491
1802.32	0.9472
1811.23	0.9456
1820.15	0.9444
1829.07	0.9435
1837.99	0.943
1846.9	0.9424
1855.82	0.9419
1864.74	0.9415
1873.66	0.9404
1882.57	0.9394
1891.49	0.9391
1900.41	0.9401
1909.33	0.9423
1918.24	0.9413
1927.16	0.9383
1936.08	0.9357
1945	0.9343
1953.91	0.9358
1962.83	0.9327
1971.75	0.9254
1980.67	0.9139
1989.58	0.9039
1998.5	0.895
2007.42	0.8844
2016.34	0.8774
2025.25	0.87
2034.17	0.8674
2043.09	0.8699
2052	0.875
2060.92	0.8816
2069.84	0.8889
2078.76	0.8973
2087.67	0.9074
2096.59	0.9245
2105.51	0.9297
2114.43	0.9286
2123.34	0.9274
2132.26	0.9264
2141.18	0.9254
2150.1	0.9249
2159.01	0.9249
2167.93	0.9262
2176.85	0.9291
2185.77	0.9329
2194.68	0.9345
2203.6	0.936
2212.52	0.937
2221.44	0.9376
2230.35	0.9375
2239.27	0.937
2248.19	0.9347
2257.11	0.9251
2266.02	0.918
2274.94	0.9161
2283.86	0.9143
2292.78	0.9144
2301.69	0.9149
2310.61	0.9154
2319.53	0.9161
2328.44	0.9166
2337.36	0.9172
2346.28	0.9178
2355.2	0.9185
2364.11	0.9207
2373.03	0.9265
2381.95	0.9299
2390.87	0.9276
2399.78	0.9255
2408.7	0.9237
2417.62	0.922
2426.54	0.9204
2435.45	0.9191
2444.37	0.9182
2453.29	0.9175
2462.21	0.9171
2471.12	0.9171
2480.04	0.9171
2488.96	0.9168
2497.88	0.9077
2506.79	0.8942
2515.71	0.8793
2524.63	0.8683
2533.55	0.8548
2542.46	0.8383
2551.38	0.8018
2560.3	0.7817
2569.22	0.7805
2578.13	0.7854
2587.05	0.7877
2595.97	0.7868
2604.89	0.7837
2613.8	0.7786
2622.72	0.773
2631.64	0.7652
2640.55	0.7511
2649.47	0.7361
2658.39	0.7338
2667.31	0.7318
2676.22	0.7254
2685.14	0.6788
2694.06	0.6305
2702.98	0.5825
2711.89	0.5289
2720.81	0.4999
2729.73	0.4841
2738.65	0.4742
2747.56	0.4587
2756.48	0.3974
2765.4	0.2879
2774.32	0.179
2783.23	0.0407
2792.15	0.0253
2801.07	0.0229
2809.99	0.0232
2818.9	0.0232
2827.82	0.0218
2836.74	0.0174
2845.66	0.0131
2854.57	0.0122
2863.49	0.0138
2872.41	0.016
2881.33	0.0186
2890.24	0.0228
2899.16	0.0255
2908.08	0.027
2916.99	0.0275
2925.91	0.0253
2934.83	0.02
2943.75	0.0143
2952.66	0.0078
2961.58	0.0055
2970.5	0.0057
2979.42	0.099
2988.33	0.2286
2997.25	0.3574
3006.17	0.4853
3015.09	0.6354
3024	0.7263
3032.92	0.7528
3041.84	0.7671
3050.76	0.7792
3059.67	0.7896
3068.59	0.7985
3077.51	0.8074
3086.43	0.8145
3095.34	0.8207
3104.26	0.8265
3113.18	0.8305
3122.1	0.8342
3131.01	0.8369
3139.93	0.8386
3148.85	0.8391
3157.77	0.8396
3166.68	0.8404
3175.6	0.8446
3184.52	0.852
3193.43	0.8547
3202.35	0.8551
3211.27	0.8546
3220.19	0.8529
3229.1	0.851
3238.02	0.8489
3246.94	0.8464
3255.86	0.8438
3264.77	0.8038
3273.69	0.7043
3282.61	0.6584
3291.53	0.6588
3300.44	0.6697
3309.36	0.716
3318.28	0.7653
3327.2	0.8142
3336.11	0.859
3345.03	0.8753
3353.95	0.8811
3362.87	0.8855
3371.78	0.889
3380.7	0.8917
3389.62	0.8943
3398.54	0.8966
3407.45	0.8989
3416.37	0.9012
3425.29	0.9034
3434.21	0.9057
3443.12	0.9083
3452.04	0.911
3460.96	0.9136
3469.88	0.9163
3478.79	0.919
3487.71	0.9217
3496.63	0.9241
3505.54	0.9266
3514.46	0.9291
3523.38	0.9316
3532.3	0.9342
3541.21	0.9374
3550.13	0.9407
3559.05	0.9439
3567.97	0.9472
3576.88	0.9509
3585.8	0.9546
3594.72	0.9581
3603.64	0.9612
3612.55	0.964
3621.47	0.9669
3630.39	0.9694
3639.31	0.9715
3648.22	0.9737
3657.14	0.9754
3666.06	0.9766
3674.98	0.9777
3683.89	0.9775
3692.81	0.9769
3701.73	0.9763
3710.65	0.9753
3719.56	0.9744
3728.48	0.9734
3737.4	0.9724
3746.32	0.9713
3755.23	0.9702
3764.15	0.9691
3773.07	0.9681
3781.98	0.967
3790.9	0.966
3799.82	0.9649
3808.74	0.9638
3817.65	0.9629
3826.57	0.9618
3835.49	0.9606
3844.41	0.9593
3853.32	0.9581
3862.24	0.9568
3871.16	0.9556
3880.08	0.954
3888.99	0.9523
3897.91	0.9505
3906.83	0.9487
3915.75	0.946
3924.66	0.9428
3933.58	0.9397
3942.5	0.9365
3951.42	0.9339
3960.33	0.9317
