Infrared Spectrum: Carbazic acid, 3-(5-nitro-2-furoyl)-, ethyl ester
Formula: C8 H9 N3 O6
CAS: 90223-46-4
State: SOLID (NUJOL MULL)
Class: COBLENTZ III
Instrument: PERKIN-ELMER 21 (GRATING)
Instrument parameters: FILTER AT ABOUT 10 MICRONS
Resolution: 2
Origin: ABBOTT LABORATORIES
1/CM	TRANSMITTANCE
666	0.6161
675	0.6468
684	0.6744
693	0.686
702	0.6788
711	0.6418
720	0.5487
729	0.5223
738	0.3769
747	0.6018
756	0.4167
765	0.6365
774	0.6963
783	0.6993
792	0.6733
801	0.5895
810	0.1715
819	0.6712
828	0.5443
837	0.2729
846	0.612
855	0.4924
864	0.5377
873	0.7311
882	0.7251
891	0.6649
900	0.7103
909	0.6913
918	0.6946
927	0.6764
936	0.6566
945	0.6268
954	0.549
963	0.4732
972	0.6023
981	0.5818
990	0.5203
999	0.4228
1008	0.2178
1017	0.3272
1026	0.303
1035	0.3832
1044	0.5561
1053	0.6109
1062	0.6065
1071	0.5924
1080	0.5806
1089	0.5613
1098	0.5359
1107	0.5171
1116	0.5178
1125	0.5225
1134	0.5114
1143	0.4891
1152	0.4628
1161	0.4436
1170	0.4326
1179	0.4024
1188	0.3723
1197	0.3224
1206	0.2489
1215	0.2122
1224	0.1749
1233	0.1228
1242	0.1164
1251	0.0905
1260	0.1328
1269	0.2186
1278	0.2632
1287	0.3016
1296	0.3423
1305	0.2952
1314	0.199
1323	0.3253
1332	0.2809
1341	0.1164
1350	0.1409
1359	0.2358
1368	0.199
1377	0.148
1386	0.1354
1395	0.3833
1404	0.5375
1413	0.5481
1422	0.502
1431	0.3423
1440	0.1951
1449	0.0924
1458	0.0576
1467	0.0657
1476	0.1296
1485	0.3395
1494	0.3506
1503	0.2618
1512	0.2956
1521	0.2827
1530	0.1823
1539	0.2067
1548	0.2157
1557	0.2419
1566	0.3125
1575	0.5269
1584	0.5573
1593	0.3655
1602	0.3874
1611	0.5475
1620	0.5651
1629	0.5481
1638	0.4747
1647	0.4231
1656	0.3069
1665	0.1944
1674	0.1433
1683	0.1448
1692	0.2115
1701	0.3025
1710	0.2591
1719	0.1955
1728	0.1842
1737	0.2936
1746	0.4492
1755	0.6018
1764	0.6772
1773	0.722
1782	0.76
1791	0.782
1800	0.7956
1809	0.7983
1818	0.7782
1827	0.7945
1836	0.8174
1845	0.8247
1854	0.8281
1863	0.8305
1872	0.8328
1881	0.8341
1890	0.8352
1899	0.8361
1908	0.8363
1917	0.8361
1926	0.8354
1935	0.8345
1944	0.8337
1953	0.8328
1962	0.8308
1971	0.8289
1980	0.8267
1989	0.8248
1998	0.8262
2007	0.8253
2016	0.822
2025	0.8182
2034	0.8172
2043	0.8157
2052	0.814
2061	0.8126
2070	0.8114
2079	0.8099
2088	0.8081
2097	0.8063
2106	0.8039
2115	0.8014
2124	0.7988
2133	0.7963
2142	0.7938
2151	0.7915
2160	0.7891
2169	0.7868
2178	0.7842
2187	0.7816
2196	0.779
2205	0.7764
2214	0.7739
2223	0.7718
2232	0.7695
2241	0.767
2250	0.7644
2259	0.7611
2268	0.7571
2277	0.7532
2286	0.7477
2295	0.742
2304	0.7376
2313	0.7355
2322	0.7353
2331	0.735
2340	0.7348
2349	0.735
2358	0.7352
2367	0.7354
2376	0.7357
2385	0.7354
2394	0.7344
2403	0.7324
2412	0.7294
2421	0.7276
2430	0.7274
2439	0.7271
2448	0.7257
2457	0.7224
2466	0.7192
2475	0.7166
2484	0.7146
2493	0.7126
2502	0.7075
2511	0.7015
2520	0.6956
2529	0.6895
2538	0.6833
2547	0.6771
2556	0.671
2565	0.6649
2574	0.6591
2583	0.6532
2592	0.6475
2601	0.6416
2610	0.6355
2619	0.6294
2628	0.6234
2637	0.6175
2646	0.6117
2655	0.606
2664	0.6004
2673	0.5954
2682	0.5905
2691	0.5856
2700	0.5809
2709	0.5765
2718	0.5736
2727	0.5726
2736	0.5713
2745	0.567
2754	0.5583
2763	0.5461
2772	0.5301
2781	0.5082
2790	0.4861
2799	0.4633
2808	0.4267
2817	0.3527
2826	0.2739
2835	0.1956
2844	0.1179
2853	0.0384
2862	0.0333
2871	0.0312
2880	0.03
2889	0.0293
2898	0.0285
2907	0.0279
2916	0.0279
2925	0.0282
2934	0.0291
2943	0.0308
2952	0.0336
2961	0.0384
2970	0.0466
2979	0.0671
2988	0.1123
2997	0.1571
3006	0.2017
3015	0.246
3024	0.2841
3033	0.3056
3042	0.3343
3051	0.3508
3060	0.3638
3069	0.3669
3078	0.3676
3087	0.3672
3096	0.3645
3105	0.3504
3114	0.334
3123	0.3178
3132	0.3017
3141	0.2912
3150	0.2889
3159	0.2855
3168	0.2801
3177	0.2677
3186	0.2495
3195	0.2253
3204	0.2127
3213	0.2086
3222	0.2085
3231	0.2186
3240	0.2418
3249	0.2647
3258	0.2877
3267	0.3104
3276	0.3178
3285	0.3169
3294	0.3145
3303	0.3121
3312	0.313
3321	0.3845
3330	0.4828
3339	0.5521
3348	0.5835
3357	0.6183
3366	0.6317
3375	0.6431
3384	0.653
3393	0.6582
3402	0.6614
3411	0.6632
3420	0.664
3429	0.6647
3438	0.6651
3447	0.6655
3456	0.6659
3465	0.6659
3474	0.6659
3483	0.6658
3492	0.6657
3501	0.6655
3510	0.6652
3519	0.665
3528	0.6646
3537	0.664
3546	0.6632
3555	0.6624
3564	0.6617
3573	0.6609
3582	0.6597
3591	0.6587
3600	0.6576
3609	0.6565
3618	0.6554
3627	0.6541
3636	0.6527
3645	0.6513
3654	0.65
3663	0.6487
3672	0.6471
3681	0.6455
3690	0.6439
3699	0.6423
3708	0.6407
3717	0.639
3726	0.6367
3735	0.6344
3744	0.6322
3753	0.6299
3762	0.6277
3771	0.6253
3780	0.6229
3789	0.6205
3798	0.6181
3807	0.6158
3816	0.6135
3825	0.6111
3834	0.6093
3843	0.6081
3852	0.6069
3861	0.6067
3870	0.6067
3879	0.6074
3888	0.608
3897	0.6086
3906	0.6091
3915	0.6075
3924	0.6058
3933	0.604
3942	0.6024
3951	0.6007
3960	0.5989
3969	0.5972
3978	0.5956
3987	0.5939
3996	0.5925
