Infrared Spectrum: BENZOIC ACID, p-(3-METHYL-3-NITROSOUREIDO)-
Formula: C9 H9 N3 O4
CAS: 90349-65-8
State: SOLID (1.0 mg / 650 mg KBr DISC)
Class: COBLENTZ III
Instrument: PERKIN-ELMER 221 (GRATING)
Instrument parameters: FILTER AT 980 CM^-^1. GRATING 4000-1428 AND NaCl PRISM 1428-650 CM^-^1
Sampling: TRANSMISSION
Resolution: 4
Origin: SOUTHERN RESEARCH INSTITUTE
1/CM	TRANSMITTANCE
636.301	0.723
644.69	0.6931
653.079	0.6672
661.467	0.5776
669.856	0.5006
678.245	0.5472
686.634	0.4426
695.023	0.5954
703.412	0.7591
711.8	0.798
720.189	0.7917
728.578	0.7582
736.967	0.6666
745.356	0.7779
753.745	0.6951
762.133	0.4298
770.522	0.1483
778.911	0.4183
787.3	0.7134
795.689	0.418
804.077	0.8226
812.466	0.8169
820.855	0.7388
829.244	0.61
837.633	0.7098
846.022	0.538
854.41	0.25
862.799	0.748
871.188	0.7239
879.577	0.6535
887.966	0.4145
896.355	0.554
904.743	0.6618
913.132	0.6328
921.521	0.543
929.91	0.4257
938.299	0.3785
946.687	0.3705
955.076	0.3277
963.465	0.2865
971.854	0.1573
980.243	0.0968
988.632	0.2197
997.02	0.5722
1005.41	0.7203
1013.8	0.737
1022.19	0.7688
1030.58	0.772
1038.96	0.7577
1047.35	0.7405
1055.74	0.7145
1064.13	0.6725
1072.52	0.603
1080.91	0.494
1089.3	0.3383
1097.69	0.1207
1106.08	0.0815
1114.46	0.253
1122.85	0.3751
1131.24	0.5024
1139.63	0.7349
1148.02	0.7186
1156.41	0.6774
1164.8	0.5758
1173.19	0.4008
1181.57	0.2422
1189.96	0.4743
1198.35	0.4682
1206.74	0.3725
1215.13	0.2148
1223.52	0.2508
1231.91	0.412
1240.3	0.3621
1248.69	0.2816
1257.07	0.3479
1265.46	0.24
1273.85	0.1004
1282.24	0.1035
1290.63	0.1771
1299.02	0.2834
1307.41	0.3637
1315.8	0.2571
1324.18	0.2514
1332.57	0.507
1340.96	0.5844
1349.35	0.605
1357.74	0.5745
1366.13	0.5184
1374.52	0.4765
1382.91	0.4019
1391.3	0.303
1399.68	0.1752
1408.07	0.1171
1416.46	0.2173
1424.85	0.3062
1433.24	0.4174
1441.63	0.399
1450.02	0.3811
1458.41	0.2795
1466.79	0.0963
1475.18	0.0961
1483.57	0.2848
1491.96	0.3983
1500.35	0.3838
1508.74	0.3379
1517.13	0.2117
1525.52	0.0952
1533.91	0.0416
1542.29	0.0789
1550.68	0.2433
1559.07	0.535
1567.46	0.613
1575.85	0.5561
1584.24	0.3785
1592.63	0.1037
1601.02	0.2178
1609.4	0.1233
1617.79	0.4967
1626.18	0.5629
1634.57	0.541
1642.96	0.5205
1651.35	0.4093
1659.74	0.2734
1668.13	0.1101
1676.52	0.024
1684.9	0.0294
1693.29	0.0933
1701.68	0.2457
1710.07	0.4586
1718.46	0.4147
1726.85	0.3028
1735.24	0.1187
1743.63	0.1386
1752.01	0.2707
1760.4	0.4955
1768.79	0.6318
1777.18	0.7034
1785.57	0.7479
1793.96	0.7594
1802.35	0.762
1810.74	0.7748
1819.13	0.786
1827.51	0.7979
1835.9	0.802
1844.29	0.7992
1852.68	0.81
1861.07	0.8102
1869.46	0.8114
1877.85	0.824
1886.24	0.828
1894.62	0.826
1903.01	0.827
1911.4	0.826
1919.79	0.8223
1928.18	0.8124
1936.57	0.797
1944.96	0.811
1953.35	0.82
1961.74	0.8206
1970.12	0.817
1978.51	0.8158
1986.9	0.817
1995.29	0.8169
2003.68	0.8169
2012.07	0.8139
2020.46	0.8049
2028.85	0.7989
2037.23	0.788
2045.62	0.7911
2054.01	0.7909
2062.4	0.794
2070.79	0.796
2079.18	0.7899
2087.57	0.784
2095.96	0.784
2104.35	0.782
2112.73	0.781
2121.12	0.7729
2129.51	0.7689
2137.9	0.768
2146.29	0.767
2154.68	0.766
2163.07	0.764
2171.46	0.755
2179.84	0.751
2188.23	0.7469
2196.62	0.7409
2205.01	0.7359
2213.4	0.729
2221.79	0.7239
2230.18	0.72
2238.57	0.718
2246.96	0.7149
2255.34	0.7069
2263.73	0.7009
2272.12	0.6959
2280.51	0.685
2288.9	0.679
2297.29	0.6769
2305.68	0.669
2314.07	0.661
2322.45	0.658
2330.84	0.6549
2339.23	0.646
2347.62	0.6409
2356.01	0.6329
2364.4	0.622
2372.79	0.6119
2381.18	0.609
2389.57	0.6059
2397.95	0.5969
2406.34	0.586
2414.73	0.5728
2423.12	0.5609
2431.51	0.551
2439.9	0.5399
2448.29	0.5309
2456.68	0.5219
2465.06	0.515
2473.45	0.5099
2481.84	0.4847
2490.23	0.4648
2498.62	0.4499
2507.01	0.4419
2515.4	0.4319
2523.79	0.4218
2532.18	0.412
2540.56	0.4111
2548.95	0.4232
2557.34	0.4492
2565.73	0.459
2574.12	0.46
2582.51	0.454
2590.9	0.45
2599.29	0.45
2607.67	0.4499
2616.06	0.4459
2624.45	0.4378
2632.84	0.4229
2641.23	0.4139
2649.62	0.416
2658.01	0.42
2666.4	0.4352
2674.79	0.4521
2683.17	0.454
2691.56	0.454
2699.95	0.4529
2708.34	0.4519
2716.73	0.444
2725.12	0.4441
2733.51	0.443
2741.9	0.4399
2750.28	0.4277
2758.67	0.4079
2767.06	0.3989
2775.45	0.3889
2783.84	0.3779
2792.23	0.37
2800.62	0.368
2809.01	0.3659
2817.4	0.36
2825.78	0.3589
2834.17	0.351
2842.56	0.35
2850.95	0.35
2859.34	0.35
2867.73	0.3501
2876.12	0.351
2884.51	0.3521
2892.89	0.353
2901.28	0.356
2909.67	0.357
2918.06	0.359
2926.45	0.36
2934.84	0.3568
2943.23	0.348
2951.62	0.341
2960.01	0.341
2968.39	0.3439
2976.78	0.341
2985.17	0.345
2993.56	0.347
3001.95	0.3521
3010.34	0.366
3018.73	0.3831
3027.12	0.387
3035.5	0.3901
3043.89	0.389
3052.28	0.384
3060.67	0.3891
3069.06	0.392
3077.45	0.4041
3085.84	0.414
3094.23	0.413
3102.61	0.4119
3111	0.4192
3119.39	0.4402
3127.78	0.4701
3136.17	0.4831
3144.56	0.491
3152.95	0.495
3161.34	0.494
3169.73	0.491
3178.11	0.4921
3186.5	0.498
3194.89	0.501
3203.28	0.501
3211.67	0.498
3220.06	0.497
3228.45	0.491
3236.84	0.484
3245.22	0.4764
3253.61	0.4517
3262	0.4237
3270.39	0.3927
3278.78	0.3238
3287.17	0.2693
3295.56	0.2017
3303.95	0.1953
3312.34	0.2393
3320.72	0.3687
3329.11	0.5046
3337.5	0.5553
3345.89	0.5681
3354.28	0.569
3362.67	0.568
3371.06	0.564
3379.45	0.563
3387.83	0.563
3396.22	0.563
3404.61	0.561
3413	0.561
3421.39	0.561
3429.78	0.561
3438.17	0.561
3446.56	0.5621
3454.95	0.5671
3463.33	0.576
3471.72	0.581
3480.11	0.582
3488.5	0.583
3496.89	0.5871
3505.28	0.589
3513.67	0.5891
3522.06	0.592
3530.44	0.592
3538.83	0.5931
3547.22	0.598
3555.61	0.6041
3564	0.605
3572.39	0.609
3580.78	0.606
3589.17	0.6101
3597.56	0.618
3605.94	0.621
3614.33	0.622
3622.72	0.624
3631.11	0.624
3639.5	0.6239
3647.89	0.6229
3656.28	0.622
3664.67	0.621
3673.05	0.618
3681.44	0.617
3689.83	0.617
3698.22	0.618
3706.61	0.6159
3715	0.613
3723.39	0.612
3731.78	0.611
3740.17	0.61
3748.55	0.607
3756.94	0.607
3765.33	0.609
3773.72	0.609
3782.11	0.603
3790.5	0.601
3798.89	0.6001
3807.28	0.598
3815.66	0.591
3824.05	0.588
3832.44	0.5869
3840.83	0.585
3849.22	0.582
3857.61	0.5799
3866	0.5749
3874.39	0.574
3882.78	0.5709
3891.16	0.5709
3899.55	0.57
