Infrared Spectrum: GLYCOLIC ACID, PROPYL ESTER
Formula: C5 H10 O3
CAS: 90357-58-7
Class: COBLENTZ
Instrument: Not specified, most likely a prism, grating, or hybrid spectrometer.
Sampling: TRANSMISSION
Path length: FILM
Resolution: 4
Origin: DOW CHEMICAL COMPANY
MICROMETERS	TRANSMITTANCE
2.028	0.782
2.06714	0.783
2.10627	0.788
2.14541	0.796
2.18454	0.801
2.22368	0.8
2.26281	0.793
2.30195	0.803
2.34109	0.806
2.38022	0.806
2.41936	0.809
2.45849	0.801
2.49763	0.804
2.53677	0.801
2.5759	0.806
2.61504	0.814
2.65417	0.804
2.69331	0.804
2.73244	0.757
2.77158	0.666
2.81072	0.53
2.84985	0.426
2.88899	0.373
2.92812	0.369
2.96726	0.391
3.0064	0.426
3.04553	0.458
3.08467	0.494
3.1238	0.533
3.16294	0.57
3.20207	0.6
3.24121	0.622
3.28035	0.632
3.31948	0.593
3.35862	0.4
3.39775	0.395
3.43689	0.482
3.47603	0.549
3.51516	0.648
3.5543	0.7
3.59343	0.73
3.63257	0.741
3.6717	0.754
3.71084	0.756
3.74998	0.76
3.78911	0.767
3.82825	0.78
3.86738	0.783
3.90652	0.791
3.94565	0.801
3.98479	0.813
4.02393	0.821
4.06306	0.83
4.1022	0.84
4.14133	0.85
4.18047	0.843
4.21961	0.866
4.25874	0.873
4.29788	0.881
4.33701	0.881
4.37615	0.882
4.41528	0.886
4.45442	0.889
4.49356	0.886
4.53269	0.886
4.57183	0.887
4.61096	0.891
4.6501	0.887
4.68924	0.891
4.72837	0.895
4.76751	0.899
4.80664	0.9
4.84578	0.899
4.88491	0.899
4.92405	0.904
4.96319	0.902
5.00232	0.904
5.04146	0.899
5.08059	0.897
5.11973	0.899
5.15886	0.897
5.198	0.892
5.23714	0.9
5.27627	0.897
5.31541	0.889
5.35454	0.895
5.39368	0.881
5.43282	0.873
5.47195	0.853
5.51109	0.826
5.55022	0.751
5.58936	0.606
5.62849	0.416
5.66763	0.191
5.70677	0.115
5.7459	0.112
5.78504	0.206
5.82417	0.383
5.86331	0.531
5.90245	0.705
5.94158	0.757
5.98072	0.773
6.01985	0.77
6.05899	0.773
6.09812	0.782
6.13726	0.8
6.1764	0.83
6.21553	0.855
6.25467	0.861
6.2938	0.861
6.33294	0.873
6.37208	0.869
6.41121	0.873
6.45035	0.866
6.48948	0.874
6.52862	0.866
6.56775	0.865
6.60689	0.861
6.64603	0.848
6.68516	0.804
6.7243	0.717
6.76343	0.617
6.80257	0.551
6.8417	0.596
6.88084	0.583
6.91998	0.554
6.95911	0.564
6.99825	0.59
7.03738	0.617
7.07652	0.591
7.11566	0.569
7.15479	0.577
7.19393	0.575
7.23306	0.583
7.2722	0.619
7.31133	0.639
7.35047	0.645
7.38961	0.652
7.42874	0.661
7.46788	0.635
7.50701	0.6
7.54615	0.569
7.58529	0.549
7.62442	0.533
7.66356	0.508
7.70269	0.474
7.74183	0.443
7.78096	0.432
7.8201	0.422
7.85924	0.416
7.89837	0.411
7.93751	0.398
7.97664	0.352
8.01578	0.295
8.05492	0.24
8.09405	0.201
8.13319	0.182
8.17232	0.177
8.21146	0.178
8.25059	0.191
8.28973	0.213
8.32887	0.243
8.368	0.274
8.40714	0.317
8.44627	0.391
8.48541	0.471
8.52454	0.531
8.56368	0.591
8.60282	0.642
8.64195	0.682
8.68109	0.72
8.72022	0.749
8.75936	0.76
8.7985	0.749
8.83763	0.725
8.87677	0.663
8.9159	0.556
8.95504	0.44
8.99417	0.325
9.03331	0.204
9.07245	0.169
9.11158	0.16
9.15072	0.191
9.18985	0.252
9.22899	0.352
9.26813	0.447
9.30726	0.517
9.3464	0.554
9.38553	0.58
9.42467	0.59
9.4638	0.619
9.50294	0.681
9.54208	0.73
9.58121	0.754
9.62035	0.785
9.65948	0.813
9.69862	0.821
9.73775	0.827
9.77689	0.809
9.81603	0.783
9.85516	0.77
9.8943	0.762
9.93343	0.743
9.97257	0.725
10.0117	0.717
10.0508	0.726
10.09	0.741
10.1291	0.751
10.1682	0.752
10.2074	0.736
10.2465	0.713
10.2857	0.697
10.3248	0.7
10.3639	0.739
10.4031	0.756
10.4422	0.76
10.4813	0.769
10.5205	0.783
10.5596	0.801
10.5987	0.809
10.6379	0.809
10.677	0.791
10.7162	0.788
10.7553	0.788
10.7944	0.79
10.8336	0.785
10.8727	0.782
10.9118	0.782
10.951	0.783
10.9901	0.788
11.0292	0.791
11.0684	0.796
11.1075	0.791
11.1466	0.79
11.1858	0.793
11.2249	0.801
11.2641	0.804
11.3032	0.809
11.3423	0.811
11.3815	0.811
11.4206	0.817
11.4597	0.821
11.4989	0.827
11.538	0.834
11.5771	0.837
11.6163	0.845
11.6554	0.848
11.6945	0.848
11.7337	0.85
11.7728	0.847
11.812	0.845
11.8511	0.84
11.8902	0.84
11.9294	0.839
11.9685	0.843
12.0076	0.847
12.0468	0.847
12.0859	0.85
12.125	0.848
12.1642	0.847
12.2033	0.847
12.2424	0.847
12.2816	0.843
12.3207	0.842
12.3599	0.84
12.399	0.837
12.4381	0.837
12.4773	0.834
12.5164	0.83
12.5555	0.83
12.5947	0.829
12.6338	0.822
12.6729	0.821
12.7121	0.821
12.7512	0.819
12.7903	0.816
12.8295	0.817
12.8686	0.814
12.9078	0.808
12.9469	0.803
12.986	0.801
13.0252	0.801
13.0643	0.801
13.1034	0.8
13.1426	0.796
13.1817	0.8
13.2208	0.804
13.26	0.803
13.2991	0.804
13.3382	0.803
13.3774	0.801
13.4165	0.8
13.4557	0.791
13.4948	0.786
13.5339	0.78
13.5731	0.777
13.6122	0.765
13.6513	0.757
13.6905	0.749
13.7296	0.739
13.7687	0.734
13.8079	0.726
13.847	0.72
13.8862	0.712
13.9253	0.707
13.9644	0.702
14.0036	0.697
14.0427	0.695
14.0818	0.692
14.121	0.689
14.1601	0.687
14.1992	0.682
14.2384	0.681
14.2775	0.679
14.3166	0.678
14.3558	0.678
14.3949	0.678
14.4341	0.676
14.4732	0.674
14.5123	0.671
14.5515	0.669
14.5906	0.669
14.6297	0.666
14.6689	0.663
14.708	0.66
14.7471	0.653
14.7863	0.652
14.8254	0.648
14.8645	0.64
14.9037	0.63
14.9428	0.627
14.982	0.626
15.0211	0.621
15.0602	0.614
15.0994	0.611
15.1385	0.608
15.1776	0.603
15.2168	0.6
15.2559	0.598
15.295	0.59
15.3342	0.578
15.3733	0.569
15.4124	0.564
15.4516	0.559
15.4907	0.556
15.5299	0.551
15.569	0.544
15.6081	0.538
15.6473	0.533
15.6864	0.531
15.7255	0.528
15.7647	0.525
15.8038	0.52
15.8429	0.52
15.8821	0.521
