Infrared Spectrum: Benzylamine, N-methyl-m-nitro-, hydrochloride
Formula: C8 H11 Cl N2 O2
CAS: 90389-70-1
State: SOLID (NUJOL MULL)
Melting point: 182 C
Class: COBLENTZ III
Instrument: PERKIN-ELMER 21 (GRATING)
Instrument parameters: FILTER AT ABOUT 10 MICRONS
Resolution: 2
Origin: ABBOTT LABORATORIES
1/CM	TRANSMITTANCE
668	0.5597
677	0.5627
686	0.5578
695	0.7446
704	0.7461
713	0.7029
722	0.6241
731	0.2594
740	0.6534
749	0.7402
758	0.7663
767	0.7732
776	0.772
785	0.7701
794	0.7486
803	0.6293
812	0.4965
821	0.6427
830	0.7642
839	0.7597
848	0.7562
857	0.7693
866	0.7624
875	0.7421
884	0.6665
893	0.5836
902	0.7152
911	0.6872
920	0.6361
929	0.7165
938	0.6988
947	0.6748
956	0.715
965	0.6944
974	0.6682
983	0.6999
992	0.6851
1001	0.6778
1010	0.688
1019	0.62
1028	0.5826
1037	0.654
1046	0.705
1055	0.7036
1064	0.6745
1073	0.6356
1082	0.6602
1091	0.6222
1100	0.5713
1109	0.686
1118	0.6551
1127	0.6097
1136	0.6178
1145	0.6126
1154	0.5935
1163	0.6739
1172	0.6948
1181	0.6925
1190	0.6791
1199	0.659
1208	0.6403
1217	0.6553
1226	0.65
1235	0.6414
1244	0.6316
1253	0.6142
1262	0.592
1271	0.5662
1280	0.5259
1289	0.4823
1298	0.4324
1307	0.4232
1316	0.3566
1325	0.2684
1334	0.1915
1343	0.0966
1352	0.2393
1361	0.3868
1370	0.2921
1379	0.3878
1388	0.518
1397	0.5248
1406	0.5313
1415	0.4816
1424	0.4316
1433	0.2665
1442	0.1638
1451	0.1084
1460	0.1016
1469	0.2206
1478	0.4137
1487	0.5812
1496	0.6259
1505	0.5987
1514	0.4801
1523	0.3925
1532	0.1921
1541	0.3677
1550	0.6131
1559	0.6774
1568	0.677
1577	0.6315
1586	0.6152
1595	0.527
1604	0.6024
1613	0.7105
1622	0.7424
1631	0.745
1640	0.7443
1649	0.7439
1658	0.7435
1667	0.7432
1676	0.7429
1685	0.7429
1694	0.7433
1703	0.7442
1712	0.7469
1721	0.7498
1730	0.7502
1739	0.7503
1748	0.7501
1757	0.7498
1766	0.749
1775	0.7477
1784	0.7481
1793	0.7489
1802	0.7487
1811	0.7466
1820	0.7431
1829	0.7422
1838	0.7421
1847	0.7422
1856	0.7429
1865	0.744
1874	0.7455
1883	0.7478
1892	0.7468
1901	0.7442
1910	0.7407
1919	0.7391
1928	0.7387
1937	0.7406
1946	0.7411
1955	0.7377
1964	0.7327
1973	0.7284
1982	0.7287
1991	0.7329
2000	0.7326
2009	0.7301
2018	0.7274
2027	0.7257
2036	0.726
2045	0.7269
2054	0.7243
2063	0.7216
2072	0.7188
2081	0.7155
2090	0.7121
2099	0.7088
2108	0.7055
2117	0.7024
2126	0.6993
2135	0.696
2144	0.6928
2153	0.6897
2162	0.6867
2171	0.6838
2180	0.6815
2189	0.6793
2198	0.6773
2207	0.6757
2216	0.6738
2225	0.6716
2234	0.6667
2243	0.6588
2252	0.6535
2261	0.6506
2270	0.6476
2279	0.6418
2288	0.6311
2297	0.6154
2306	0.601
2315	0.59
2324	0.5814
2333	0.5753
2342	0.5703
2351	0.5647
2360	0.5588
2369	0.5487
2378	0.5327
2387	0.509
2396	0.4786
2405	0.4455
2414	0.4419
2423	0.4661
2432	0.5181
2441	0.5496
2450	0.5517
2459	0.5512
2468	0.5505
2477	0.5492
2486	0.5476
2495	0.5453
2504	0.5343
2513	0.5192
2522	0.4988
2531	0.4786
2540	0.4586
2549	0.439
2558	0.4275
2567	0.4209
2576	0.4177
2585	0.4152
2594	0.41
2603	0.4025
2612	0.3915
2621	0.3783
2630	0.3652
2639	0.3491
2648	0.3316
2657	0.308
2666	0.2569
2675	0.2273
2684	0.2225
2693	0.2224
2702	0.2224
2711	0.2227
2720	0.2235
2729	0.2243
2738	0.2246
2747	0.2249
2756	0.2247
2765	0.2238
2774	0.2223
2783	0.2199
2792	0.2157
2801	0.1943
2810	0.1488
2819	0.1036
2828	0.0586
2837	0.0225
2846	0.0152
2855	0.0132
2864	0.012
2873	0.011
2882	0.0108
2891	0.0109
2900	0.0112
2909	0.0117
2918	0.0123
2927	0.0134
2936	0.0149
2945	0.0183
2954	0.0367
2963	0.0915
2972	0.1467
2981	0.2017
2990	0.2577
2999	0.2959
3008	0.3177
3017	0.3367
3026	0.3582
3035	0.3797
3044	0.4009
3053	0.422
3062	0.4431
3071	0.464
3080	0.4931
3089	0.5053
3098	0.5183
3107	0.5332
3116	0.5495
3125	0.5598
3134	0.5623
3143	0.5624
3152	0.562
3161	0.5618
3170	0.5624
3179	0.5657
3188	0.5699
3197	0.5742
3206	0.5759
3215	0.5762
3224	0.5758
3233	0.5747
3242	0.5733
3251	0.5719
3260	0.5706
3269	0.569
3278	0.5672
3287	0.5656
3296	0.5646
3305	0.5638
3314	0.563
3323	0.5624
3332	0.5618
3341	0.5614
3350	0.5613
3359	0.5611
3368	0.5606
3377	0.56
3386	0.5591
3395	0.5578
3404	0.5565
3413	0.5551
3422	0.5539
3431	0.553
3440	0.5523
3449	0.5518
3458	0.5516
3467	0.5514
3476	0.5511
3485	0.5508
3494	0.5506
3503	0.5501
3512	0.5496
3521	0.5491
3530	0.5485
3539	0.5478
3548	0.5468
3557	0.5459
3566	0.5449
3575	0.5439
3584	0.5426
3593	0.5412
3602	0.5399
3611	0.5385
3620	0.5371
3629	0.5357
3638	0.5342
3647	0.5327
3656	0.5313
3665	0.5298
3674	0.5283
3683	0.5269
3692	0.5255
3701	0.524
3710	0.5227
3719	0.5217
3728	0.5206
3737	0.5195
3746	0.5185
3755	0.5174
3764	0.5162
3773	0.5149
3782	0.5136
3791	0.5122
3800	0.5109
3809	0.5096
3818	0.5085
3827	0.5073
3836	0.5061
3845	0.505
3854	0.5038
3863	0.5027
3872	0.5016
3881	0.5006
3890	0.4995
3899	0.4985
3908	0.4974
3917	0.4964
3926	0.4954
3935	0.4942
3944	0.493
3953	0.4919
3962	0.4908
3971	0.4897
3980	0.4886
3989	0.4874
3998	0.4866
