Infrared Spectrum: 3,5-Difluorobenzylamine
Formula: C 7 H 7 F 2 N
CAS: 90390-27-5
State: gas
Origin: EPA-IR VAPOR PHASE LIBRARY
1/CM	ABSORBANCE
549.8	0.00809
559.445	0.00671
569.09	0.00401
578.734	0.00481
588.379	0.00477
598.024	0.00501
607.669	0.00528
617.313	0.00728
626.958	0.00923
636.603	0.00918
646.248	0.00902
655.893	0.0095
665.537	0.01247
675.182	0.01625
684.827	0.01649
694.472	0.01538
704.116	0.01244
713.761	0.01189
723.406	0.01295
733.051	0.0149
742.695	0.01688
752.34	0.0199
761.985	0.02225
771.63	0.02499
781.275	0.02314
790.919	0.02028
800.564	0.01727
810.209	0.0145
819.854	0.01523
829.498	0.01512
839.143	0.02844
848.788	0.04971
858.433	0.03489
868.078	0.01889
877.722	0.01082
887.367	0.00847
897.012	0.00714
906.657	0.00654
916.301	0.00772
925.946	0.01017
935.591	0.01367
945.236	0.01637
954.88	0.01722
964.525	0.01825
974.17	0.02133
983.815	0.0275
993.46	0.02889
1003.1	0.02019
1012.75	0.0098
1022.39	0.00505
1032.04	0.00383
1041.68	0.00373
1051.33	0.00474
1060.97	0.00474
1070.62	0.00424
1080.26	0.00421
1089.91	0.00544
1099.55	0.01129
1109.2	0.04132
1118.84	0.08112
1128.49	0.07442
1138.13	0.01783
1147.78	0.00601
1157.42	0.00324
1167.07	0.00284
1176.71	0.00321
1186.36	0.00259
1196	0.00201
1205.64	0.00222
1215.29	0.001504
1224.93	0.00271
1234.58	0.00335
1244.22	0.0023
1253.87	0.0031
1263.51	0.00433
1273.16	0.00513
1282.8	0.00593
1292.45	0.00847
1302.09	0.01967
1311.74	0.04117
1321.38	0.05018
1331.03	0.03234
1340.67	0.01716
1350.32	0.01376
1359.96	0.01336
1369.61	0.01471
1379.25	0.01517
1388.9	0.01209
1398.54	0.00842
1408.18	0.0078
1417.83	0.0124
1427.47	0.02525
1437.12	0.03653
1446.76	0.04377
1456.41	0.05021
1466.05	0.04829
1475.7	0.02927
1485.34	0.01591
1494.99	0.01023
1504.63	0.00958
1514.28	0.00921
1523.92	0.00823
1533.57	0.00704
1543.21	0.00749
1552.86	0.00826
1562.5	0.01138
1572.15	0.02324
1581.79	0.0474
1591.44	0.07169
1601.08	0.07763
1610.73	0.07777
1620.37	0.09291
1630.01	0.07547
1639.66	0.03774
1649.3	0.01845
1658.95	0.01147
1668.59	0.00939
1678.24	0.0079
1687.88	0.00644
1697.53	0.00452
1707.17	0.00348
1716.82	0.00332
1726.46	0.00306
1736.11	0.00277
1745.75	0.00234
1755.4	0.00231
1765.04	0.0019
1774.69	0.0017114
1784.33	0.0016532
1793.98	0.0016688
1803.62	0.0014212
1813.27	0.0013122
1822.91	0.0014353
1832.55	0.0014081
1842.2	0.0014355
1851.84	0.001428
1861.49	0.0012931
1871.13	0.0014478
1880.78	0.0012597
1890.42	0.0013061
1900.07	0.0012501
1909.71	0.0011987
1919.36	0.0014653
1929	0.0010878
1938.65	0.0012842
1948.29	0.0012402
1957.94	0.001083
1967.58	0.0014442
1977.23	0.0013381
1986.87	0.001188
1996.52	0.0010517
2006.16	0.0011645
2015.81	0.0010119
2025.45	0.0011035
2035.1	0.001077
2044.74	0.0010686
2054.38	0.0011836
2064.03	0.001406
2073.67	0.001528
2083.32	0.0012553
2092.96	0.0015694
2102.61	0.0017549
2112.25	0.0017559
2121.9	0.0013678
2131.54	0.0013821
2141.19	0.0013202
2150.83	0.001169
2160.48	0.0012919
2170.12	0.001104
2179.77	0.0011972
2189.41	0.001109
2199.06	0.0011816
2208.7	0.0013207
2218.35	0.0011459
2227.99	0.0012367
2237.64	0.0013532
2247.28	0.0014556
2256.92	0.0016731
2266.57	0.0012115
2276.21	0.0015723
2285.86	0.0012231
2295.5	0.0010523
2305.15	0.0013484
2314.79	0.0013666
2324.44	0.0010787
2334.08	0.0012557
2343.73	0.0013705
2353.37	0.0012482
2363.02	0.0012413
2372.66	0.0011748
2382.31	0.0011767
2391.95	0.0012432
2401.6	0.0016121
2411.24	0.0016683
2420.89	0.00182
2430.53	0.0017531
2440.18	0.00187
2449.82	0.0013912
2459.47	0.0014612
2469.11	0.00087085
2478.75	0.0010613
2488.4	0.0009885
2498.04	0.0007507
2507.69	0.0009611
2517.33	0.001024
2526.98	0.001027
2536.62	0.0010198
2546.27	0.0012285
2555.91	0.0011592
2565.56	0.0012027
2575.2	0.0014214
2584.85	0.001807
2594.49	0.0013734
2604.14	0.001138
2613.78	0.0012152
2623.43	0.0011784
2633.07	0.0012844
2642.72	0.0011717
2652.36	0.0011844
2662.01	0.0013168
2671.65	0.001368
2681.29	0.0013537
2690.94	0.0015889
2700.58	0.001403
2710.23	0.0015654
2719.87	0.0016609
2729.52	0.00206
2739.16	0.00191
2748.81	0.00191
2758.45	0.0017591
2768.1	0.00244
2777.74	0.0026
2787.39	0.00183
2797.03	0.00214
2806.68	0.0031
2816.32	0.00317
2825.97	0.00431
2835.61	0.0052
2845.26	0.00614
2854.9	0.0077
2864.55	0.00947
2874.19	0.00993
2883.84	0.00875
2893.48	0.00937
2903.12	0.00972
2912.77	0.00992
2922.41	0.00904
2932.06	0.00837
2941.7	0.00801
2951.35	0.00765
2960.99	0.00638
2970.64	0.00475
2980.28	0.00326
2989.93	0.00193
2999.57	0.0017006
3009.22	0.0014461
3018.86	0.0013395
3028.51	0.0014619
3038.15	0.0013429
3047.8	0.0010913
3057.44	0.00196
3067.09	0.00302
3076.73	0.00235
3086.38	0.00227
3096.02	0.00201
3105.67	0.0015673
3115.31	0.0009786
3124.95	0.0011784
3134.6	0.000810015
3144.24	0.0011052
3153.89	0.000709
3163.53	0.000405
3173.18	0.0009258
3182.82	0.00083003
3192.47	0.0011675
3202.11	0.0008073
3211.76	0.0009377
3221.4	0.0013627
3231.05	0.0010337
3240.69	0.000675
3250.34	0.0013263
3259.98	0.0011472
3269.63	0.0011777
3279.27	0.0010708
3288.92	0.000509
3298.56	0.0007175
3308.21	0.0009512
3317.85	0.000619
3327.49	0.0013078
3337.14	0.0009718
3346.78	0.00199
3356.43	0.0014402
3366.07	0.0012028
3375.72	0.0009271
3385.36	0.00195
3395.01	0.0010301
3404.65	0.0016512
3414.3	0.0010946
3423.94	0.00188
3433.59	0.0011894
3443.23	0.0011645
3452.88	0.0011829
3462.52	0.000629
3472.17	0.0010207
3481.81	0.0010766
3491.46	0.00080647
3501.1	0.000664
3510.75	0.00067
3520.39	0.000231
3530.04	0.000627
3539.68	0.0010029
3549.32	0.0010283
3558.97	0.0010851
3568.61	0.0011026
3578.26	0.000176
3587.9	0.00089867
3597.55	0.0014229
3607.19	0.0010457
3616.84	0.00082473
3626.48	0.0012806
3636.13	0.00017
3645.77	0.000374
3655.42	0.001268
3665.06	0.0009363
3674.71	0.000814314
3684.35	0.0011235
3694	0.0012999
3703.64	0.000472
3713.29	0.0009977
3722.93	0.0016562
3732.58	0.0011475
3742.22	0.00087794
3751.86	0.0015367
3761.51	0.00088912
3771.15	0.00068
3780.8	0.000121
3790.44	0.001493
3800.09	0.0007623
3809.73	0.000166
3819.38	0.00033
3829.02	0.000259
3838.67	0.0013739
3848.31	0.00090312
3857.96	0.000201
3867.6	0.0008666
3877.25	0.0007596
3886.89	0.0010077
3896.54	0.000638
3906.18	0.0007919
3915.83	0.0009522
3925.47	0.0010809
3935.12	0.0009694
3944.76	0.000574
3954.41	0.0009107
3964.05	0.0010789
3973.69	0.0014611
3983.34	0.00083769
3992.98	0.0010886
