Infrared Spectrum: PENTACHLOROPHENYL DIMETHYL CARBAMATE
Formula: C9 H6 Cl5 N O2
CAS: 90418-41-0
State: SOLUTION (10% CCl4 FOR 5000-1330, 10% CS2 FOR 1330-625 CM^-^1)
Class: COBLENTZ
Instrument: Not specified, most likely a prism, grating, or hybrid spectrometer.
Sampling: TRANSMISSION
Path length: 0.011 CM, 0.011 CM
Resolution: 4
Origin: DOW CHEMICAL COMPANY
MICROMETERS	TRANSMITTANCE
2.053	0.905
2.09306	0.903
2.13312	0.902
2.17317	0.9
2.21323	0.89
2.25329	0.897
2.29335	0.9
2.33341	0.902
2.37346	0.903
2.41352	0.905
2.45358	0.905
2.49364	0.912
2.5337	0.915
2.57375	0.91
2.61381	0.903
2.65387	0.908
2.69393	0.894
2.73399	0.892
2.77404	0.87
2.8141	0.846
2.85416	0.831
2.89422	0.837
2.93428	0.837
2.97433	0.831
3.01439	0.844
3.05445	0.849
3.09451	0.86
3.13457	0.869
3.17462	0.87
3.21468	0.869
3.25474	0.869
3.2948	0.839
3.33486	0.798
3.37491	0.632
3.41497	0.71
3.45503	0.768
3.49509	0.834
3.53514	0.854
3.5752	0.88
3.61526	0.889
3.65532	0.892
3.69538	0.895
3.73543	0.895
3.77549	0.894
3.81555	0.892
3.85561	0.89
3.89567	0.892
3.93572	0.892
3.97578	0.894
4.01584	0.895
4.0559	0.9
4.09596	0.894
4.13601	0.892
4.17607	0.899
4.21613	0.89
4.25619	0.877
4.29625	0.874
4.3363	0.879
4.37636	0.885
4.41642	0.889
4.45648	0.897
4.49654	0.894
4.53659	0.892
4.57665	0.895
4.61671	0.899
4.65677	0.894
4.69683	0.894
4.73688	0.89
4.77694	0.887
4.817	0.897
4.85706	0.892
4.89712	0.889
4.93717	0.89
4.97723	0.88
5.01729	0.879
5.05735	0.874
5.09741	0.887
5.13746	0.889
5.17752	0.892
5.21758	0.894
5.25764	0.894
5.2977	0.882
5.33775	0.87
5.37781	0.867
5.41787	0.874
5.45793	0.86
5.49799	0.822
5.53804	0.796
5.5781	0.763
5.61816	0.627
5.65822	0.238
5.69828	0.061
5.73833	0.127
5.77839	0.566
5.81845	0.688
5.85851	0.736
5.89857	0.794
5.93862	0.821
5.97868	0.836
6.01874	0.846
6.0588	0.834
6.09886	0.826
6.13891	0.812
6.17897	0.773
6.21903	0.711
6.25909	0.644
6.29914	0.6
6.3392	0.569
6.37926	0.516
6.41932	0.447
6.45938	0.422
6.49943	0.471
6.53949	0.509
6.57955	0.519
6.61961	0.518
6.65967	0.498
6.69972	0.528
6.73978	0.572
6.77984	0.564
6.8199	0.554
6.85996	0.536
6.90001	0.508
6.94007	0.586
6.98013	0.625
7.02019	0.594
7.06025	0.519
7.1003	0.526
7.14036	0.508
7.18042	0.397
7.22048	0.182
7.26054	0.054
7.30059	0.033
7.34065	0.052
7.38071	0.288
7.42077	0.548
7.46083	0.687
7.50088	0.716
7.54094	0.748
7.581	0.706
7.62106	0.612
7.66112	0.529
7.70117	0.617
7.74123	0.663
7.78129	0.594
7.82135	0.504
7.86141	0.574
7.90146	0.584
7.94152	0.412
7.98158	0.564
8.02164	0.69
8.0617	0.726
8.10175	0.743
8.14181	0.741
8.18187	0.726
8.22193	0.711
8.26199	0.682
8.30204	0.652
8.3421	0.63
8.38216	0.612
8.42222	0.579
8.46228	0.514
8.50233	0.417
8.54239	0.314
8.58245	0.211
8.62251	0.147
8.66257	0.072
8.70262	0.041
8.74268	0.097
8.78274	0.135
8.8228	0.039
8.86286	0.043
8.90291	0.158
8.94297	0.362
8.98303	0.501
9.02309	0.576
9.06314	0.627
9.1032	0.665
9.14326	0.69
9.18332	0.703
9.22338	0.711
9.26343	0.71
9.30349	0.685
9.34355	0.645
9.38361	0.62
9.42367	0.64
9.46372	0.677
9.50378	0.695
9.54384	0.71
9.5839	0.716
9.62396	0.711
9.66401	0.667
9.70407	0.6
9.74413	0.495
9.78419	0.339
9.82425	0.188
9.8643	0.238
9.90436	0.478
9.94442	0.663
9.98448	0.733
10.0245	0.766
10.0646	0.783
10.1047	0.783
10.1447	0.779
10.1848	0.791
10.2248	0.798
10.2649	0.793
10.3049	0.778
10.345	0.759
10.3851	0.73
10.4251	0.7
10.4652	0.698
10.5052	0.764
10.5453	0.799
10.5853	0.811
10.6254	0.821
10.6655	0.822
10.7055	0.822
10.7456	0.817
10.7856	0.812
10.8257	0.814
10.8658	0.819
10.9058	0.824
10.9459	0.824
10.9859	0.827
11.026	0.829
11.066	0.826
11.1061	0.819
11.1462	0.812
11.1862	0.801
11.2263	0.786
11.2663	0.764
11.3064	0.751
11.3464	0.743
11.3865	0.735
11.4266	0.72
11.4666	0.708
11.5067	0.698
11.5467	0.685
11.5868	0.668
11.6269	0.65
11.6669	0.642
11.707	0.615
11.747	0.571
11.7871	0.423
11.8271	0.284
11.8672	0.448
11.9073	0.639
11.9473	0.706
11.9874	0.736
12.0274	0.756
12.0675	0.763
12.1076	0.766
12.1476	0.774
12.1877	0.774
12.2277	0.774
12.2678	0.774
12.3078	0.771
12.3479	0.771
12.388	0.766
12.428	0.753
12.4681	0.743
12.5081	0.72
12.5482	0.668
12.5882	0.591
12.6283	0.44
12.6684	0.307
12.7084	0.236
12.7485	0.283
12.7885	0.387
12.8286	0.504
12.8687	0.581
12.9087	0.635
12.9488	0.65
12.9888	0.649
13.0289	0.657
13.0689	0.677
13.109	0.693
13.1491	0.693
13.1891	0.68
13.2292	0.663
13.2692	0.624
13.3093	0.579
13.3493	0.498
13.3894	0.369
13.4295	0.256
13.4695	0.288
13.5096	0.476
13.5496	0.582
13.5897	0.62
13.6298	0.63
13.6698	0.632
13.7099	0.609
13.7499	0.587
13.79	0.557
13.83	0.509
13.8701	0.418
13.9102	0.327
13.9502	0.246
13.9903	0.221
14.0303	0.258
14.0704	0.336
14.1104	0.432
14.1505	0.501
14.1906	0.539
14.2306	0.566
14.2707	0.576
14.3107	0.586
14.3508	0.586
14.3909	0.591
14.4309	0.596
14.471	0.592
14.511	0.591
14.5511	0.591
14.5911	0.586
14.6312	0.577
14.6713	0.576
14.7113	0.571
14.7514	0.557
14.7914	0.557
14.8315	0.549
14.8716	0.543
14.9116	0.534
14.9517	0.524
14.9917	0.519
15.0318	0.508
15.0718	0.496
15.1119	0.481
15.152	0.475
15.192	0.466
15.2321	0.453
15.2721	0.442
15.3122	0.427
15.3522	0.402
15.3923	0.387
15.4324	0.38
15.4724	0.375
15.5125	0.377
15.5525	0.384
15.5926	0.387
15.6327	0.389
15.6727	0.387
15.7128	0.384
15.7528	0.38
15.7929	0.375
15.8329	0.372
15.873	0.37
