Infrared Spectrum: P-NITRO CARBANILIC ACID, n-PENTYL ESTER
Formula: C12 H16 N2 O4
CAS: 90429-36-0
State: SOLID (1.8 mg / 100 mg KBr)
Melting point: 89 C
Class: COBLENTZ
Instrument: Not specified, most likely a grating spectrometer.
Sampling: TRANSMISSION
Resolution: 4
Origin: CITRUS EXPERIMENT STATION, UNIVERSITY OF FLORIDA (G. EDWARDS)
MICROMETERS	TRANSMITTANCE
2.06	0.791
2.09321	0.791
2.12641	0.793
2.15962	0.791
2.19282	0.791
2.22603	0.791
2.25923	0.791
2.29244	0.794
2.32564	0.791
2.35885	0.793
2.39205	0.793
2.42526	0.791
2.45846	0.791
2.49167	0.791
2.52487	0.791
2.55808	0.791
2.59128	0.791
2.62449	0.79
2.65769	0.789
2.6909	0.79
2.7241	0.789
2.75731	0.79
2.79051	0.786
2.82372	0.782
2.85692	0.777
2.89013	0.763
2.92333	0.5
2.95654	0.683
2.98974	0.777
3.02295	0.787
3.05615	0.791
3.08936	0.791
3.12256	0.791
3.15577	0.782
3.18897	0.779
3.22218	0.779
3.25538	0.779
3.28859	0.773
3.32179	0.746
3.355	0.603
3.3882	0.659
3.42141	0.703
3.45461	0.698
3.48782	0.779
3.52102	0.795
3.55423	0.802
3.58743	0.803
3.62064	0.81
3.65384	0.81
3.68705	0.809
3.72025	0.809
3.75346	0.809
3.78666	0.809
3.81987	0.809
3.85307	0.809
3.88628	0.809
3.91948	0.809
3.95269	0.809
3.98589	0.809
4.0191	0.809
4.0523	0.81
4.08551	0.814
4.11871	0.822
4.15192	0.823
4.18512	0.825
4.21833	0.825
4.25153	0.825
4.28474	0.825
4.31794	0.826
4.35115	0.826
4.38435	0.826
4.41756	0.826
4.45076	0.826
4.48397	0.826
4.51718	0.826
4.55038	0.826
4.58359	0.829
4.61679	0.827
4.65	0.827
4.6832	0.829
4.71641	0.829
4.74961	0.829
4.78282	0.829
4.81602	0.829
4.84923	0.829
4.88243	0.829
4.91564	0.827
4.94884	0.827
4.98205	0.827
5.01525	0.827
5.04846	0.827
5.08166	0.827
5.11487	0.827
5.14807	0.827
5.18128	0.829
5.21448	0.829
5.24769	0.83
5.28089	0.83
5.3141	0.827
5.3473	0.827
5.38051	0.823
5.41371	0.821
5.44692	0.813
5.48012	0.805
5.51333	0.799
5.54653	0.798
5.57974	0.791
5.61294	0.79
5.64615	0.762
5.67935	0.627
5.71256	0.437
5.74576	0.607
5.77897	0.719
5.81217	0.79
5.84538	0.801
5.87858	0.805
5.91179	0.803
5.94499	0.806
5.9782	0.806
6.0114	0.799
6.04461	0.79
6.07781	0.782
6.11102	0.77
6.14422	0.696
6.17743	0.481
6.21063	0.6
6.24384	0.451
6.27704	0.698
6.31025	0.726
6.34345	0.666
6.37666	0.452
6.40986	0.26
6.44307	0.36
6.47627	0.591
6.50948	0.572
6.54268	0.381
6.57589	0.4
6.60909	0.594
6.6423	0.576
6.6755	0.656
6.70871	0.72
6.74191	0.702
6.77512	0.738
6.80832	0.757
6.84153	0.786
6.87474	0.79
6.90794	0.79
6.94115	0.793
6.97435	0.791
7.00756	0.743
7.04076	0.68
7.07397	0.77
7.10717	0.777
7.14038	0.763
7.17358	0.744
7.20679	0.73
7.23999	0.73
7.2732	0.736
7.3064	0.726
7.33961	0.696
7.37281	0.519
7.40602	0.304
7.43922	0.209
7.47243	0.158
7.50563	0.228
7.53884	0.344
7.57204	0.472
7.60525	0.468
7.63845	0.548
7.67166	0.667
7.70486	0.711
7.73807	0.72
7.77127	0.72
7.80448	0.714
7.83768	0.7
7.87089	0.683
7.90409	0.695
7.9373	0.724
7.9705	0.692
8.00371	0.646
8.03691	0.626
8.07012	0.566
8.10332	0.456
8.13653	0.263
8.16973	0.126
8.20294	0.121
8.23614	0.186
8.26935	0.297
8.30255	0.456
8.33576	0.57
8.36896	0.602
8.40217	0.62
8.43537	0.602
8.46858	0.607
8.50178	0.696
8.53499	0.755
8.56819	0.771
8.6014	0.785
8.6346	0.794
8.66781	0.798
8.70101	0.799
8.73422	0.798
8.76742	0.794
8.80063	0.789
8.83383	0.754
8.86704	0.722
8.90024	0.763
8.93345	0.748
8.96665	0.614
8.99986	0.504
9.03306	0.591
9.06627	0.718
9.09947	0.774
9.13268	0.785
9.16588	0.785
9.19909	0.781
9.23229	0.759
9.2655	0.734
9.29871	0.646
9.33191	0.571
9.36512	0.587
9.39832	0.614
9.43153	0.64
9.46473	0.68
9.49794	0.719
9.53114	0.735
9.56435	0.732
9.59755	0.739
9.63076	0.773
9.66396	0.789
9.69717	0.803
9.73037	0.817
9.76358	0.826
9.79678	0.826
9.82999	0.825
9.86319	0.825
9.8964	0.831
9.9296	0.833
9.96281	0.833
9.99601	0.833
10.0292	0.833
10.0624	0.833
10.0956	0.833
10.1288	0.833
10.162	0.831
10.1952	0.831
10.2284	0.831
10.2617	0.831
10.2949	0.831
10.3281	0.831
10.3613	0.835
10.3945	0.837
10.4277	0.842
10.4609	0.855
10.4941	0.855
10.5273	0.858
10.5605	0.858
10.5937	0.858
10.6269	0.858
10.6601	0.859
10.6933	0.859
10.7265	0.859
10.7597	0.859
10.7929	0.859
10.8261	0.859
10.8593	0.859
10.8925	0.859
10.9258	0.858
10.959	0.858
10.9922	0.858
11.0254	0.858
11.0586	0.858
11.0918	0.858
11.125	0.857
11.1582	0.855
11.1914	0.854
11.2246	0.853
11.2578	0.853
11.291	0.853
11.3242	0.851
11.3574	0.846
11.3906	0.834
11.4238	0.81
11.457	0.743
11.4902	0.7
11.5234	0.743
11.5566	0.793
11.5899	0.794
11.6231	0.773
11.6563	0.706
11.6895	0.508
11.7227	0.433
11.7559	0.563
11.7891	0.706
11.8223	0.789
11.8555	0.806
11.8887	0.81
11.9219	0.805
11.9551	0.801
11.9883	0.803
12.0215	0.814
12.0547	0.829
12.0879	0.831
12.1211	0.835
12.1543	0.847
12.1875	0.853
12.2208	0.853
12.254	0.854
12.2872	0.854
12.3204	0.854
12.3536	0.854
12.3868	0.854
12.42	0.853
12.4532	0.854
12.4864	0.853
12.5196	0.853
12.5528	0.853
12.586	0.851
12.6192	0.85
12.6524	0.849
12.6856	0.845
12.7188	0.842
12.752	0.839
12.7852	0.831
12.8184	0.822
12.8516	0.81
12.8849	0.791
12.9181	0.781
12.9513	0.773
12.9845	0.751
13.0177	0.707
13.0509	0.668
13.0841	0.662
13.1173	0.692
13.1505	0.724
13.1837	0.774
13.2169	0.781
13.2501	0.781
13.2833	0.757
13.3165	0.675
13.3497	0.547
13.3829	0.608
13.4161	0.712
13.4493	0.779
13.4825	0.791
13.5157	0.794
13.549	0.794
13.5822	0.793
13.6154	0.793
13.6486	0.794
13.6818	0.795
13.715	0.797
13.7482	0.799
13.7814	0.801
13.8146	0.801
13.8478	0.801
13.881	0.801
13.9142	0.801
13.9474	0.799
13.9806	0.798
14.0138	0.794
14.047	0.793
14.0802	0.791
14.1134	0.79
14.1466	0.786
14.1799	0.783
14.2131	0.782
14.2463	0.771
14.2795	0.762
14.3127	0.746
14.3459	0.731
14.3791	0.703
14.4123	0.664
14.4455	0.631
14.4787	0.63
14.5119	0.639
14.5451	0.656
14.5783	0.686
14.6115	0.699
14.6447	0.7
14.6779	0.7
14.7111	0.696
14.7443	0.692
14.7775	0.69
14.8107	0.687
14.844	0.668
14.8772	0.644
14.9104	0.624
14.9436	0.608
14.9768	0.644
15.01	0.636
