Infrared Spectrum: N-METHYL-m-CHLOROBENZYLIDENIMINE
Formula: C8 H8 Cl N
CAS: 90434-25-6
Class: COBLENTZ
Instrument: PERKIN-ELMER
Sampling: TRANSMISSION
Path length: CAPILLARY
Resolution: 4
Origin: ABBOTT LABORATORIES - WASHBURN
MICROMETERS	TRANSMITTANCE
2.029	0.891
2.06215	0.901
2.09531	0.892
2.12846	0.897
2.16162	0.896
2.19477	0.8819
2.22793	0.894
2.26108	0.881
2.29424	0.8839
2.32739	0.867
2.36055	0.874
2.3937	0.8819
2.42686	0.881
2.46001	0.8809
2.49317	0.8739
2.52632	0.881
2.55948	0.8836
2.59263	0.8887
2.62579	0.892
2.65894	0.8891
2.6921	0.886
2.72525	0.887
2.75841	0.889
2.79156	0.891
2.82472	0.887
2.85787	0.8772
2.89103	0.871
2.92418	0.869
2.95734	0.865
2.99049	0.8688
3.02365	0.8671
3.0568	0.842
3.08996	0.862
3.12311	0.864
3.15627	0.8499
3.18942	0.8389
3.22258	0.8122
3.25573	0.7093
3.28889	0.708
3.32204	0.7249
3.3552	0.7265
3.38835	0.4893
3.42151	0.5246
3.45466	0.4709
3.48782	0.365
3.52097	0.3478
3.55413	0.6472
3.58728	0.757
3.62044	0.649
3.65359	0.8149
3.68675	0.8439
3.7199	0.8519
3.75306	0.872
3.78621	0.881
3.81937	0.882
3.85252	0.8792
3.88567	0.874
3.91883	0.879
3.95198	0.882
3.98514	0.884
4.01829	0.8838
4.05145	0.889
4.0846	0.887
4.11776	0.889
4.15091	0.891
4.18407	0.889
4.21722	0.8861
4.25038	0.8887
4.28353	0.892
4.31669	0.891
4.34984	0.891
4.383	0.891
4.41615	0.892
4.44931	0.892
4.48246	0.8939
4.51562	0.8911
4.54877	0.8889
4.58193	0.8941
4.61508	0.892
4.64824	0.894
4.68139	0.8892
4.71455	0.8743
4.7477	0.8809
4.78086	0.8889
4.81401	0.897
4.84717	0.891
4.88032	0.896
4.91348	0.8992
4.94663	0.8941
4.97979	0.8821
5.01294	0.869
5.0461	0.882
5.07925	0.8793
5.11241	0.8592
5.14556	0.8562
5.17872	0.8676
5.21187	0.879
5.24503	0.8677
5.27818	0.853
5.31134	0.845
5.34449	0.8425
5.37765	0.8558
5.4108	0.8693
5.44396	0.871
5.47711	0.8649
5.51027	0.854
5.54342	0.8441
5.57658	0.8302
5.60973	0.835
5.64288	0.8437
5.67604	0.8542
5.70919	0.8443
5.74235	0.842
5.7755	0.8496
5.80866	0.8545
5.84181	0.8421
5.87497	0.8161
5.90812	0.8001
5.94128	0.7924
5.97443	0.7458
6.00759	0.3955
6.04074	0.1332
6.0739	0.4414
6.10705	0.6261
6.14021	0.7265
6.17336	0.7214
6.20652	0.7164
6.23967	0.6414
6.27283	0.5796
6.30598	0.5282
6.33914	0.2888
6.37229	0.2898
6.40545	0.4743
6.4386	0.6889
6.47176	0.7182
6.50491	0.7616
6.53807	0.775
6.57122	0.7922
6.60438	0.815
6.63753	0.822
6.67069	0.8141
6.70384	0.7541
6.737	0.5542
6.77015	0.4303
6.80331	0.3935
6.83646	0.4907
6.86962	0.4051
6.90277	0.5062
6.93593	0.564
6.96908	0.4454
7.00224	0.2346
7.03539	0.362
7.06855	0.4055
7.1017	0.4918
7.13486	0.4733
7.16801	0.5497
7.20117	0.6998
7.23432	0.7298
7.26748	0.6911
7.30063	0.5334
7.33379	0.3617
7.36694	0.4101
7.4001	0.5954
7.43325	0.7117
7.4664	0.7545
7.49956	0.7803
7.53271	0.8008
7.56587	0.8127
7.59902	0.8143
7.63218	0.817
7.66533	0.811
7.69849	0.7699
7.73164	0.7497
7.7648	0.7582
7.79795	0.6131
7.83111	0.5366
7.86426	0.7089
7.89742	0.724
7.93057	0.5274
7.96373	0.7174
7.99688	0.7666
8.03004	0.776
8.06319	0.7741
8.09635	0.7333
8.1295	0.6607
8.16266	0.5669
8.19581	0.5335
8.22897	0.4198
8.26212	0.149
8.29528	0.3368
8.32843	0.593
8.36159	0.7188
8.39474	0.7554
8.4279	0.7965
8.46105	0.816
8.49421	0.8213
8.52736	0.824
8.56052	0.8179
8.59367	0.7989
8.62683	0.7703
8.65998	0.7779
8.69314	0.8113
8.72629	0.824
8.75945	0.829
8.7926	0.8248
8.82576	0.8091
8.85891	0.7598
8.89207	0.7054
8.92522	0.709
8.95838	0.7445
8.99153	0.748
9.02469	0.736
9.05784	0.707
9.091	0.6776
9.12415	0.6137
9.15731	0.5331
9.19046	0.5429
9.22362	0.5863
9.25677	0.6424
9.28992	0.4812
9.32308	0.2982
9.35623	0.4104
9.38939	0.605
9.42254	0.7282
9.4557	0.7896
9.48885	0.8113
9.52201	0.8247
9.55516	0.8333
9.58832	0.837
9.62147	0.837
9.65463	0.839
9.68778	0.8345
9.72094	0.829
9.75409	0.8196
9.78725	0.8111
9.8204	0.783
9.85356	0.7226
9.88671	0.6383
9.91987	0.4225
9.95302	0.2455
9.98618	0.2291
10.0193	0.3792
10.0525	0.4881
10.0856	0.6285
10.1188	0.7136
10.152	0.74
10.1851	0.7587
10.2183	0.773
10.2514	0.775
10.2846	0.777
10.3177	0.782
10.3509	0.782
10.384	0.7603
10.4172	0.6778
10.4503	0.5427
10.4835	0.3596
10.5167	0.3037
10.5498	0.4458
10.583	0.614
10.6161	0.7398
10.6493	0.7852
10.6824	0.8081
10.7156	0.8246
10.7487	0.833
10.7819	0.83
10.8151	0.8288
10.8482	0.8018
10.8814	0.7104
10.9145	0.5912
10.9477	0.5314
10.9808	0.549
11.014	0.6188
11.0471	0.6343
11.0803	0.639
11.1134	0.638
11.1466	0.6428
11.1798	0.6267
11.2129	0.5537
11.2461	0.4187
11.2792	0.3774
11.3124	0.4987
11.3455	0.5551
11.3787	0.5798
11.4118	0.5897
11.445	0.5988
11.4781	0.6366
11.5113	0.6988
11.5445	0.7635
11.5776	0.7953
11.6108	0.8191
11.6439	0.83
11.6771	0.8349
11.7102	0.8494
11.7434	0.854
11.7765	0.855
11.8097	0.8581
11.8429	0.8645
11.876	0.8661
11.9092	0.869
11.9423	0.871
11.9755	0.8684
12.0086	0.8635
12.0418	0.8598
12.0749	0.8495
12.1081	0.8418
12.1412	0.8369
12.1744	0.83
12.2076	0.83
12.2407	0.835
12.2739	0.8291
12.307	0.8242
12.3402	0.8192
12.3733	0.8036
12.4065	0.79
12.4396	0.7626
12.4728	0.7132
12.506	0.648
12.5391	0.5551
12.5723	0.4587
12.6054	0.3448
12.6386	0.2501
12.6717	0.1856
12.7049	0.1439
12.738	0.127
12.7712	0.1279
12.8043	0.1434
12.8375	0.2171
12.8707	0.3471
12.9038	0.471
12.937	0.5638
12.9701	0.6298
13.0033	0.671
13.0364	0.7122
13.0696	0.7443
13.1027	0.7705
13.1359	0.7827
13.169	0.7933
13.2022	0.8002
13.2354	0.805
13.2685	0.812
13.3017	0.814
13.3348	0.8168
13.368	0.8144
13.4011	0.8092
13.4343	0.81
13.4674	0.8076
13.5006	0.7987
13.5338	0.7942
13.5669	0.7898
13.6001	0.7759
13.6332	0.7571
13.6664	0.7345
13.6995	0.6989
13.7327	0.635
13.7658	0.5327
13.799	0.4392
13.8321	0.3801
13.8653	0.3658
13.8985	0.4088
13.9316	0.491
13.9648	0.5711
13.9979	0.6179
14.0311	0.6617
14.0642	0.6769
14.0974	0.6739
14.1305	0.6414
14.1637	0.5708
14.1969	0.4387
14.23	0.2431
14.2632	0.18
14.2963	0.2277
14.3295	0.3766
14.3626	0.4893
14.3958	0.5619
14.4289	0.6008
14.4621	0.6063
14.4952	0.56
14.5284	0.4446
14.5616	0.3072
14.5947	0.1985
14.6279	0.1246
14.661	0.11
14.6942	0.137
14.7273	0.2425
14.7605	0.3689
14.7936	0.4789
14.8268	0.5837
14.8599	0.6389
14.8931	0.6812
14.9263	0.7009
14.9594	0.71
14.9926	0.728
