Infrared Spectrum: 2-(2-Benzothiazolyl)-5-methoxyphenol
Formula: C 14 H 11 N O 2 S
CAS: 90481-46-2
State: gas
Origin: EPA-IR VAPOR PHASE LIBRARY
1/CM	ABSORBANCE
549.8	0.002402
559.445	0.004322
569.09	0.003822
578.734	0.002732
588.379	0.003492
598.024	0.003042
607.669	0.002872
617.313	0.002772
626.958	0.005412
636.603	0.005622
646.248	0.004502
655.893	0.004532
665.537	0.004092
675.182	0.004622
684.827	0.007572
694.472	0.023452
704.116	0.012162
713.761	0.010822
723.406	0.017642
733.051	0.011812
742.695	0.011392
752.34	0.030162
761.985	0.023822
771.63	0.008732
781.275	0.006462
790.919	0.008202
800.564	0.009942
810.209	0.005382
819.854	0.003072
829.498	0.004542
839.143	0.009652
848.788	0.009512
858.433	0.008962
868.078	0.006102
877.722	0.002592
887.367	0.002142
897.012	0.002132
906.657	0.002332
916.301	0.003552
925.946	0.006372
935.591	0.011072
945.236	0.015842
954.88	0.013572
964.525	0.009032
974.17	0.022422
983.815	0.010342
993.46	0.003682
1003.1	0.003912
1012.75	0.006722
1022.39	0.007892
1032.04	0.015402
1041.68	0.014862
1051.33	0.006082
1060.97	0.004802
1070.62	0.008012
1080.26	0.005382
1089.91	0.004732
1099.55	0.006222
1109.2	0.012162
1118.84	0.045672
1128.49	0.041452
1138.13	0.029222
1147.78	0.023552
1157.42	0.028062
1167.07	0.046802
1176.71	0.028212
1186.36	0.023192
1196	0.028532
1205.64	0.050622
1215.29	0.082212
1224.93	0.062802
1234.58	0.049822
1244.22	0.047342
1253.87	0.026032
1263.51	0.023952
1273.16	0.028382
1282.8	0.037702
1292.45	0.037942
1302.09	0.028082
1311.74	0.019292
1321.38	0.019722
1331.03	0.026252
1340.67	0.021992
1350.32	0.018712
1359.96	0.018852
1369.61	0.021672
1379.25	0.026042
1388.9	0.023712
1398.54	0.013292
1408.18	0.008992
1417.83	0.010572
1427.47	0.020742
1437.12	0.056482
1446.76	0.039512
1456.41	0.033452
1466.05	0.050542
1475.7	0.071832
1485.34	0.096662
1494.99	0.046052
1504.63	0.019372
1514.28	0.014972
1523.92	0.015092
1533.57	0.012802
1543.21	0.011872
1552.86	0.015822
1562.5	0.024742
1572.15	0.037542
1581.79	0.046992
1591.44	0.041882
1601.08	0.029272
1610.73	0.034382
1620.37	0.079592
1630.01	0.124762
1639.66	0.050192
1649.3	0.016412
1658.95	0.009502
1668.59	0.006812
1678.24	0.005772
1687.88	0.005372
1697.53	0.004582
1707.17	0.003762
1716.82	0.003382
1726.46	0.003132
1736.11	0.002472
1745.75	0.002012
1755.4	0.002012
1765.04	0.002032
1774.69	0.002602
1784.33	0.002172
1793.98	0.001632
1803.62	0.001712
1813.27	0.002162
1822.91	0.001652
1832.55	0.001652
1842.2	0.001822
1851.84	0.001972
1861.49	0.002802
1871.13	0.001752
1880.78	0.001402
1890.42	0.001952
1900.07	0.002302
1909.71	0.001512
1919.36	0.001372
1929	0.002262
1938.65	0.002172
1948.29	0.001132
1957.94	0.0010095
1967.58	0.0009632
1977.23	0.0009485
1986.87	0.0008883
1996.52	0.0009835
2006.16	0.0009614
2015.81	0.001152
2025.45	0.001222
2035.1	0.0010927
2044.74	0.001282
2054.38	0.001592
2064.03	0.002042
2073.67	0.001972
2083.32	0.001202
2092.96	0.0009796
2102.61	0.0008444
2112.25	0.000879
2121.9	0.0008568
2131.54	0.0010283
2141.19	0.0011026
2150.83	0.001182
2160.48	0.0010817
2170.12	0.0010138
2179.77	0.000976
2189.41	0.001001
2199.06	0.0011112
2208.7	0.001152
2218.35	0.001212
2227.99	0.001132
2237.64	0.0009566
2247.28	0.0010303
2256.92	0.0009833
2266.57	0.0009385
2276.21	0.0009081
2285.86	0.0009911
2295.5	0.0009887
2305.15	0.001172
2314.79	0.001212
2324.44	0.001412
2334.08	0.001172
2343.73	0.001212
2353.37	0.001382
2363.02	0.001562
2372.66	0.001512
2382.31	0.001302
2391.95	0.001282
2401.6	0.001302
2411.24	0.001472
2420.89	0.001452
2430.53	0.001662
2440.18	0.001732
2449.82	0.001902
2459.47	0.001912
2469.11	0.001982
2478.75	0.002112
2488.4	0.002072
2498.04	0.002172
2507.69	0.002052
2517.33	0.002122
2526.98	0.002052
2536.62	0.002332
2546.27	0.002342
2555.91	0.002562
2565.56	0.002652
2575.2	0.002722
2584.85	0.002992
2594.49	0.003182
2604.14	0.003462
2613.78	0.003482
2623.43	0.003372
2633.07	0.003472
2642.72	0.003472
2652.36	0.003682
2662.01	0.003682
2671.65	0.003822
2681.29	0.003862
2690.94	0.004062
2700.58	0.004172
2710.23	0.004422
2719.87	0.004592
2729.52	0.004442
2739.16	0.004492
2748.81	0.004382
2758.45	0.004242
2768.1	0.004162
2777.74	0.004342
2787.39	0.004322
2797.03	0.004732
2806.68	0.005052
2816.32	0.005612
2825.97	0.006302
2835.61	0.008042
2845.26	0.012572
2854.9	0.012702
2864.55	0.008432
2874.19	0.007322
2883.84	0.007742
2893.48	0.008642
2903.12	0.010012
2912.77	0.011922
2922.41	0.012302
2932.06	0.012472
2941.7	0.016932
2951.35	0.019252
2960.99	0.016592
2970.64	0.014592
2980.28	0.011542
2989.93	0.011022
2999.57	0.013132
3009.22	0.019542
3018.86	0.015022
3028.51	0.011922
3038.15	0.012702
3047.8	0.011602
3057.44	0.012552
3067.09	0.018692
3076.73	0.022352
3086.38	0.016232
3096.02	0.012962
3105.67	0.011682
3115.31	0.011092
3124.95	0.010862
3134.6	0.010542
3144.24	0.010262
3153.89	0.010042
3163.53	0.010252
3173.18	0.010162
3182.82	0.010402
3192.47	0.010172
3202.11	0.009992
3211.76	0.009622
3221.4	0.009592
3231.05	0.009372
3240.69	0.009212
3250.34	0.008722
3259.98	0.008592
3269.63	0.008042
3279.27	0.007502
3288.92	0.007192
3298.56	0.006852
3308.21	0.006122
3317.85	0.005822
3327.49	0.005402
3337.14	0.005192
3346.78	0.004752
3356.43	0.004452
3366.07	0.003992
3375.72	0.003502
3385.36	0.003332
3395.01	0.003042
3404.65	0.002662
3414.3	0.002572
3423.94	0.002242
3433.59	0.002002
3443.23	0.001902
3452.88	0.001662
3462.52	0.001692
3472.17	0.001302
3481.81	0.001202
3491.46	0.0009924
3501.1	0.0009086
3510.75	0.0010266
3520.39	0.0009172
3530.04	0.0008844
3539.68	0.0005681
3549.32	0.0004966
3558.97	0.0005718
3568.61	0.0004512
3578.26	0.0006085
3587.9	0.0006796
3597.55	0.0004899
3607.19	0.0003681
3616.84	0.0003015
3626.48	0.0004989
3636.13	0.00020781
3645.77	0.0003018
3655.42	0.0002836
3665.06	0.0004175
3674.71	0.0004849
3684.35	0.0004224
3694	0.0003275
3703.64	0.000338
3713.29	0.0004204
3722.93	0.00019943
3732.58	0.0004581
3742.22	0.0002455
3751.86	0.0003137
3761.51	0.0002715
3771.15	0.0003209
3780.8	0.0002752
3790.44	0.000263
3800.09	0.0002948
3809.73	0.00018474
3819.38	0.0003192
3829.02	0.00020173
3838.67	0.0002453
3848.31	0.0004489
3857.96	0.0003994
3867.6	0.0003729
3877.25	0.0003508
3886.89	0.0002909
3896.54	0.0003376
3906.18	0.0002915
3915.83	0.0002923
3925.47	0.0003998
3935.12	0.0003337
3944.76	0.0004568
3954.41	0.000248
3964.05	0.00019487
3973.69	0.0004109
3983.34	0.000422
3992.98	0.00017519
