Infrared Spectrum: BENZOXAZOLIUM COMPOUNDS, 3-ETHYL-2-[3-(3-ETHYL-2-BENZOXAZOLINYLIDENE)PROPENYL] IODIDE
Formula: C21 H21 I N2 O2
CAS: 905-96-4
State: SOLID (SPLIT MULL), FLUOROLUBE FOR 3800-1330 CM^-^1, NUJOL FOR 1330-400 CM^-^1
Class: COBLENTZ III
Instrument: DOW KBr FOREPRISM-GRATING
Instrument parameters: BLAZED AT 3.5, 12.0, 20.0 MICRON AND CHANGED AT 5.0, 7.5, 14.9 MICRON
Sampling: TRANSMISSION
Resolution: 2
Origin: DOW CHEMICAL COMPANY
1/CM	TRANSMITTANCE
395.575	0.843
404.425	0.846
413.274	0.851
422.124	0.861
430.973	0.881
439.823	0.906
448.672	0.936
457.522	0.961
466.371	0.978
475.221	0.987
484.071	0.995
492.92	0.99
501.77	1.016
510.619	1.023
519.469	1.023
528.318	1.03
537.168	1.032
546.017	1.031
554.867	1.03
563.717	1.019
572.566	1.024
581.416	1.016
590.265	1.031
599.115	1.03
607.964	1.027
616.814	1.017
625.664	0.972
634.513	1.009
643.363	1.002
652.212	0.965
661.062	0.903
669.911	0.973
678.761	0.94
687.61	0.907
696.46	0.92
705.31	0.982
714.159	0.965
723.009	0.928
731.858	0.864
740.708	0.394
749.557	0.829
758.407	0.936
767.256	0.815
776.106	0.962
784.956	0.982
793.805	0.965
802.655	0.936
811.504	0.92
820.354	0.978
829.203	0.971
838.053	0.956
846.902	0.883
855.752	0.946
864.602	0.96
873.451	0.946
882.301	0.954
891.15	0.949
900	0.931
908.849	0.858
917.699	0.587
926.548	0.912
935.398	0.898
944.248	0.909
953.097	0.885
961.947	0.798
970.796	0.598
979.646	0.787
988.495	0.884
997.345	0.883
1006.19	0.818
1015.04	0.831
1023.89	0.895
1032.74	0.88
1041.59	0.869
1050.44	0.855
1059.29	0.822
1068.14	0.744
1076.99	0.458
1085.84	0.468
1094.69	0.5891
1103.54	0.831
1112.39	0.556
1121.24	0.4161
1130.09	0.817
1138.94	0.835
1147.79	0.798
1156.64	0.737
1165.49	0.818
1174.34	0.739
1183.19	0.552
1192.04	0.641
1200.88	0.5
1209.73	0.293
1218.58	0.127
1227.43	0.239
1236.28	0.592
1245.13	0.434
1253.98	0.692
1262.83	0.813
1271.68	0.836
1280.53	0.828
1289.38	0.821
1298.23	0.851
1307.08	0.836
1315.93	0.825
1324.78	0.814
1333.63	0.769
1342.48	0.592
1351.33	0.509
1360.18	0.596
1369.03	0.546
1377.88	0.633
1386.73	0.583
1395.58	0.502
1404.42	0.567
1413.27	0.532
1422.12	0.587
1430.97	0.534
1439.82	0.48
1448.67	0.329
1457.52	0.222
1466.37	0.373
1475.22	0.468
1484.07	0.48
1492.92	0.472
1501.77	0.25
1510.62	0.184
1519.47	0.237
1528.32	0.394
1537.17	0.619
1546.02	0.619
1554.87	0.434
1563.72	0.177
1572.57	0.228
1581.42	0.2811
1590.27	0.637
1599.11	0.793
1607.96	0.625
1616.81	0.862
1625.66	0.87
1634.51	0.918
1643.36	0.943
1652.21	0.969
1661.06	0.979
1669.91	0.98
1678.76	0.979
1687.61	0.98
1696.46	0.98
1705.31	0.983
1714.16	0.983
1723.01	0.978
1731.86	0.968
1740.71	0.964
1749.56	0.96
1758.41	0.951
1767.26	0.945
1776.11	0.938
1784.96	0.932
1793.81	0.929
1802.65	0.924
1811.5	0.914
1820.35	0.912
1829.2	0.905
1838.05	0.902
1846.9	0.896
1855.75	0.894
1864.6	0.888
1873.45	0.887
1882.3	0.883
1891.15	0.88
1900	0.877
1908.85	0.872
1917.7	0.862
1926.55	0.861
1935.4	0.858
1944.25	0.855
1953.1	0.851
1961.95	0.851
1970.8	0.842
1979.65	0.836
1988.5	0.839
1997.34	0.836
2006.19	0.8365
2015.04	0.8325
2023.89	0.8285
2032.74	0.822
2041.59	0.82
2050.44	0.8159
2059.29	0.8104
2068.14	0.8048
2076.99	0.8
2085.84	0.798
2094.69	0.7937
2103.54	0.791
2112.39	0.7873
2121.24	0.782
2130.09	0.777
2138.94	0.7746
2147.79	0.771
2156.64	0.77
2165.49	0.769
2174.34	0.7653
2183.19	0.7605
2192.04	0.756
2200.88	0.752
2209.73	0.7472
2218.58	0.7416
2227.43	0.7374
2236.28	0.733
2245.13	0.728
2253.98	0.7221
2262.83	0.7171
2271.68	0.714
2280.53	0.71
2289.38	0.707
2298.23	0.703
2307.08	0.699
2315.93	0.696
2324.78	0.695
2333.63	0.6931
2342.48	0.692
2351.33	0.692
2360.18	0.692
2369.03	0.692
2377.88	0.6879
2386.73	0.684
2395.58	0.681
2404.42	0.681
2413.27	0.679
2422.12	0.678
2430.97	0.675
2439.82	0.673
2448.67	0.67
2457.52	0.668
2466.37	0.666
2475.22	0.664
2484.07	0.663
2492.92	0.662
2501.77	0.6598
2510.62	0.657
2519.47	0.656
2528.32	0.656
2537.17	0.656
2546.02	0.6545
2554.87	0.652
2563.72	0.6504
2572.57	0.649
2581.42	0.6473
2590.27	0.644
2599.11	0.6406
2607.96	0.64
2616.81	0.638
2625.66	0.638
2634.51	0.638
2643.36	0.637
2652.21	0.635
2661.06	0.634
2669.91	0.6321
2678.76	0.6295
2687.61	0.626
2696.46	0.622
2705.31	0.622
2714.16	0.62
2723.01	0.62
2731.86	0.619
2740.71	0.6169
2749.56	0.6144
2758.41	0.611
2767.26	0.6084
2776.11	0.607
2784.96	0.605
2793.81	0.604
2802.65	0.6004
2811.5	0.596
2820.35	0.594
2829.2	0.5923
2838.05	0.593
2846.9	0.593
2855.75	0.59
2864.6	0.586
2873.45	0.583
2882.3	0.581
2891.15	0.578
2900	0.5752
2908.85	0.575
2917.7	0.575
2926.55	0.5702
2935.4	0.564
2944.25	0.564
2953.1	0.5544
2961.95	0.5481
2970.8	0.542
2979.65	0.542
2988.5	0.543
2997.35	0.5478
3006.19	0.55
3015.04	0.55
3023.89	0.55
3032.74	0.552
3041.59	0.557
3050.44	0.561
3059.29	0.564
3068.14	0.565
3076.99	0.567
3085.84	0.567
3094.69	0.567
3103.54	0.567
3112.39	0.565
3121.24	0.564
3130.09	0.563
3138.94	0.5609
3147.79	0.557
3156.64	0.554
3165.49	0.553
3174.34	0.5528
3183.19	0.55
3192.04	0.549
3200.88	0.546
3209.73	0.543
3218.58	0.543
3227.43	0.542
3236.28	0.539
3245.13	0.537
3253.98	0.534
3262.83	0.532
3271.68	0.53
3280.53	0.528
3289.38	0.527
3298.23	0.526
3307.08	0.523
3315.93	0.52
3324.78	0.517
3333.63	0.515
3342.48	0.512
3351.33	0.509
3360.18	0.506
3369.03	0.506
3377.88	0.505
3386.73	0.5045
3395.58	0.5005
3404.42	0.498
3413.27	0.496
3422.12	0.495
3430.97	0.495
3439.82	0.495
3448.67	0.493
3457.52	0.493
3466.37	0.493
3475.22	0.493
3484.07	0.493
3492.92	0.491
3501.77	0.489
3510.62	0.489
3519.47	0.489
3528.32	0.487
3537.17	0.484
3546.02	0.484
3554.87	0.483
3563.72	0.4823
3572.57	0.4805
3581.42	0.478
3590.27	0.478
3599.11	0.479
3607.96	0.478
3616.81	0.478
3625.66	0.478
3634.51	0.476
3643.36	0.472
3652.21	0.4693
3661.06	0.4681
3669.91	0.468
3678.76	0.468
3687.61	0.468
3696.46	0.468
3705.31	0.4651
3714.16	0.464
3723.01	0.462
3731.86	0.461
3740.71	0.46
3749.56	0.46
3758.41	0.458
3767.26	0.458
3776.11	0.457
3784.96	0.457
3793.81	0.456
