Infrared Spectrum: Imidazole, 5-amino-4-piperidinocarbonyl-, hydrochloride
Formula: C9 H15 Cl N4 O
CAS: 90521-71-4
State: SOLID (0.8 mg / 650 mg KBr DISC)
Class: COBLENTZ III
Instrument: PERKIN-ELMER 21 (GRATING)
Instrument parameters: FILTER CHANGE AT 1025 CM^-^1
Sampling: TRANSMISSION
Resolution: 2
Origin: SOUTHERN RESEARCH INSTITUTE, W.C. Coburn, Jr.
1/CM	TRANSMITTANCE
602.04	0.487
611.093	0.4817
620.146	0.4771
629.199	0.4724
638.251	0.4671
647.304	0.4576
656.357	0.4495
665.41	0.446
674.463	0.4742
683.516	0.4849
692.569	0.4856
701.622	0.4967
710.674	0.4991
719.727	0.4984
728.78	0.4979
737.833	0.4979
746.886	0.502
755.939	0.4973
764.992	0.5044
774.045	0.528
783.097	0.5216
792.15	0.5066
801.203	0.4949
810.256	0.5046
819.309	0.5501
828.362	0.5727
837.415	0.5873
846.468	0.5798
855.52	0.5792
864.573	0.607
873.626	0.6053
882.679	0.5961
891.732	0.596
900.785	0.5925
909.838	0.5877
918.89	0.5806
927.943	0.57
936.996	0.5902
946.049	0.6335
955.102	0.6429
964.155	0.6582
973.208	0.6484
982.261	0.6338
991.313	0.6145
1000.37	0.5882
1009.42	0.6045
1018.47	0.6141
1027.52	0.579
1036.58	0.6256
1045.63	0.6195
1054.68	0.6066
1063.74	0.6085
1072.79	0.6183
1081.84	0.6174
1090.9	0.6007
1099.95	0.5719
1109	0.544
1118.05	0.5319
1127.11	0.5321
1136.16	0.5453
1145.21	0.5977
1154.27	0.5887
1163.32	0.563
1172.37	0.5371
1181.42	0.5738
1190.48	0.5731
1199.53	0.5395
1208.58	0.5268
1217.64	0.5949
1226.69	0.5733
1235.74	0.5469
1244.79	0.5312
1253.85	0.5348
1262.9	0.575
1271.95	0.5794
1281.01	0.5444
1290.06	0.5103
1299.11	0.3861
1308.16	0.4166
1317.22	0.5877
1326.27	0.5964
1335.32	0.5812
1344.38	0.5393
1353.43	0.5018
1362.48	0.5032
1371.53	0.5109
1380.59	0.5217
1389.64	0.5441
1398.69	0.5347
1407.75	0.512
1416.8	0.4575
1425.85	0.3789
1434.9	0.284
1443.96	0.2272
1453.01	0.2656
1462.06	0.3093
1471.12	0.2913
1480.17	0.4092
1489.22	0.4923
1498.27	0.491
1507.33	0.4315
1516.38	0.3665
1525.43	0.4507
1534.49	0.4818
1543.54	0.4776
1552.59	0.4596
1561.64	0.3996
1570.7	0.366
1579.75	0.3226
1588.8	0.2666
1597.86	0.2084
1606.91	0.1506
1615.96	0.1575
1625.01	0.1359
1634.07	0.1151
1643.12	0.1204
1652.17	0.1962
1661.23	0.2879
1670.28	0.4039
1679.33	0.4659
1688.38	0.4765
1697.44	0.4944
1706.49	0.5289
1715.54	0.5881
1724.6	0.6112
1733.65	0.6513
1742.7	0.6782
1751.75	0.6918
1760.81	0.6972
1769.86	0.7007
1778.91	0.7056
1787.97	0.7181
1797.02	0.7262
1806.07	0.7301
1815.12	0.7336
1824.18	0.7366
1833.23	0.7402
1842.28	0.7441
1851.34	0.7467
1860.39	0.7489
1869.44	0.75
1878.49	0.7517
1887.55	0.754
1896.6	0.7561
1905.65	0.7576
1914.71	0.7592
1923.76	0.761
1932.81	0.7625
1941.86	0.7649
1950.92	0.7657
1959.97	0.763
1969.02	0.7629
1978.08	0.7626
1987.13	0.7623
1996.18	0.7616
2005.24	0.7608
2014.29	0.7597
2023.34	0.7564
2032.39	0.7533
2041.45	0.7514
2050.5	0.7501
2059.55	0.7489
2068.61	0.7473
2077.66	0.7453
2086.71	0.7435
2095.76	0.7414
2104.82	0.7376
2113.87	0.7335
2122.92	0.7293
2131.98	0.727
2141.03	0.725
2150.08	0.7235
2159.13	0.7223
2168.19	0.7195
2177.24	0.7151
2186.29	0.7099
2195.35	0.7052
2204.4	0.7
2213.45	0.6951
2222.5	0.6909
2231.56	0.6857
2240.61	0.6784
2249.66	0.673
2258.72	0.6676
2267.77	0.6618
2276.82	0.656
2285.87	0.6505
2294.93	0.645
2303.98	0.6396
2313.03	0.6342
2322.09	0.6287
2331.14	0.6227
2340.19	0.6168
2349.24	0.6118
2358.3	0.607
2367.35	0.6027
2376.4	0.5979
2385.46	0.5898
2394.51	0.5823
2403.56	0.5728
2412.61	0.564
2421.67	0.5547
2430.72	0.5459
2439.77	0.5376
2448.83	0.53
2457.88	0.5232
2466.93	0.5165
2475.98	0.51
2485.04	0.504
2494.09	0.4989
2503.14	0.4946
2512.2	0.4893
2521.25	0.4826
2530.3	0.4754
2539.35	0.469
2548.41	0.4606
2557.46	0.4504
2566.51	0.4379
2575.57	0.4234
2584.62	0.4136
2593.67	0.4079
2602.72	0.4023
2611.78	0.3953
2620.83	0.3879
2629.88	0.3825
2638.94	0.3816
2647.99	0.3776
2657.04	0.3724
2666.09	0.3677
2675.15	0.3676
2684.2	0.3679
2693.25	0.368
2702.31	0.368
2711.36	0.367
2720.41	0.3574
2729.46	0.3429
2738.52	0.3256
2747.57	0.3135
2756.62	0.305
2765.68	0.2985
2774.73	0.2916
2783.78	0.2855
2792.83	0.2817
2801.89	0.2784
2810.94	0.2751
2819.99	0.272
2829.05	0.2691
2838.1	0.2646
2847.15	0.2591
2856.2	0.2541
2865.26	0.2538
2874.31	0.2546
2883.36	0.2565
2892.42	0.2567
2901.47	0.2531
2910.52	0.2469
2919.57	0.243
2928.63	0.239
2937.68	0.2367
2946.73	0.2391
2955.79	0.2457
2964.84	0.2553
2973.89	0.2675
2982.95	0.2751
2992	0.2775
3001.05	0.2797
3010.1	0.2824
3019.16	0.2867
3028.21	0.2912
3037.26	0.2974
3046.32	0.2985
3055.37	0.2977
3064.42	0.2973
3073.47	0.2959
3082.53	0.2929
3091.58	0.2898
3100.63	0.2898
3109.69	0.289
3118.74	0.2873
3127.79	0.2845
3136.84	0.2813
3145.9	0.2774
3154.95	0.2735
3164	0.2712
3173.06	0.2707
3182.11	0.2712
3191.16	0.2767
3200.21	0.2849
3209.27	0.2964
3218.32	0.3109
3227.37	0.3248
3236.43	0.3264
3245.48	0.3233
3254.53	0.319
3263.58	0.3156
3272.64	0.3137
3281.69	0.3124
3290.74	0.3107
3299.8	0.3088
3308.85	0.3073
3317.9	0.3065
3326.95	0.3105
3336.01	0.3159
3345.06	0.3219
3354.11	0.3296
3363.17	0.3363
3372.22	0.3429
3381.27	0.3504
3390.32	0.3583
3399.38	0.3636
3408.43	0.3666
3417.48	0.3737
3426.54	0.3821
3435.59	0.3898
3444.64	0.4005
3453.69	0.4149
3462.75	0.4312
3471.8	0.4503
3480.85	0.4719
3489.91	0.4905
3498.96	0.5035
3508.01	0.5151
3517.06	0.5265
3526.12	0.5457
3535.17	0.5663
3544.22	0.5846
3553.28	0.5983
3562.33	0.6091
3571.38	0.6208
3580.43	0.6311
3589.49	0.6409
3598.54	0.6541
3607.59	0.6665
3616.65	0.6782
3625.7	0.698
3634.75	0.714
3643.8	0.7255
3652.86	0.7349
3661.91	0.7431
3670.96	0.7491
3680.02	0.7538
3689.07	0.7544
3698.12	0.756
3707.17	0.7592
3716.23	0.7606
3725.28	0.7625
3734.33	0.763
3743.39	0.7634
3752.44	0.7638
3761.49	0.7644
3770.54	0.765
3779.6	0.7655
3788.65	0.766
3797.7	0.7669
3806.76	0.7671
3815.81	0.767
3824.86	0.7671
3833.91	0.7677
3842.97	0.7683
3852.02	0.7678
3861.07	0.7646
3870.13	0.7622
3879.18	0.7616
3888.23	0.762
3897.29	0.7615
3906.34	0.7604
3915.39	0.7594
3924.44	0.7575
3933.5	0.7562
3942.55	0.756
3951.6	0.7547
3960.66	0.7541
3969.71	0.7535
3978.76	0.7528
3987.81	0.7525
3996.87	0.7523
4005.92	0.752
4014.97	0.7494
