Infrared Spectrum: Alpha,Alpha'-DIACETYL-GLUTARAMIDE
Formula: C9 H14 N2 O4
CAS: 90566-30-6
State: SOLID (KBr PRESSING)
Melting point: 161.5-162 C (DECOMPOSE)
Class: COBLENTZ
Instrument: Not specified, most likely a prism, grating, or hybrid spectrometer.
Sampling: TRANSMISSION
Resolution: 4
Origin: EASTMAN KODAK COMPANY, RESEARCH LABORATORIES, ROCHESTER, N.Y.
MICROMETERS	TRANSMITTANCE
2.12	0.768
2.15998	0.755
2.19996	0.757
2.23994	0.76
2.27992	0.763
2.3199	0.767
2.35988	0.768
2.39987	0.768
2.43985	0.767
2.47983	0.767
2.51981	0.772
2.55979	0.767
2.59977	0.781
2.63975	0.778
2.67973	0.778
2.71971	0.788
2.75969	0.781
2.79967	0.722
2.83965	0.637
2.87963	0.565
2.91961	0.373
2.9596	0.214
2.99958	0.159
3.03956	0.278
3.07954	0.349
3.11952	0.406
3.1595	0.324
3.19948	0.314
3.23946	0.542
3.27944	0.65
3.31942	0.698
3.3594	0.711
3.39938	0.713
3.43936	0.718
3.47934	0.727
3.51933	0.765
3.55931	0.767
3.59929	0.778
3.63927	0.767
3.67925	0.781
3.71923	0.79
3.75921	0.795
3.79919	0.809
3.83917	0.813
3.87915	0.813
3.91913	0.813
3.95911	0.813
3.99909	0.816
4.03907	0.821
4.07906	0.824
4.11904	0.829
4.15902	0.829
4.199	0.829
4.23898	0.827
4.27896	0.832
4.31894	0.832
4.35892	0.831
4.3989	0.834
4.43888	0.839
4.47886	0.834
4.51884	0.827
4.55882	0.831
4.5988	0.842
4.63879	0.839
4.67877	0.84
4.71875	0.839
4.75873	0.834
4.79871	0.836
4.83869	0.842
4.87867	0.844
4.91865	0.842
4.95863	0.836
4.99861	0.84
5.03859	0.84
5.07857	0.839
5.11855	0.844
5.15853	0.84
5.19852	0.844
5.2385	0.847
5.27848	0.849
5.31846	0.842
5.35844	0.84
5.39842	0.836
5.4384	0.84
5.47838	0.831
5.51836	0.834
5.55834	0.827
5.59832	0.813
5.6383	0.796
5.67828	0.778
5.71826	0.729
5.75825	0.7
5.79823	0.578
5.83821	0.091
5.87819	0.04
5.91817	0.221
5.95815	0.288
5.99813	0.14
6.03811	0.047
6.07809	0.036
6.11807	0.231
6.15805	0.37
6.19803	0.411
6.23801	0.496
6.27799	0.57
6.31798	0.67
6.35796	0.691
6.39794	0.724
6.43792	0.731
6.4779	0.745
6.51788	0.76
6.55786	0.78
6.59784	0.773
6.63782	0.77
6.6778	0.775
6.71778	0.744
6.75776	0.719
6.79774	0.716
6.83772	0.713
6.87771	0.68
6.91769	0.55
6.95767	0.403
6.99765	0.403
7.03763	0.413
7.07761	0.4
7.11759	0.331
7.15757	0.316
7.19755	0.35
7.23753	0.38
7.27751	0.418
7.31749	0.46
7.35747	0.331
7.39745	0.395
7.43744	0.521
7.47742	0.588
7.5174	0.619
7.55738	0.6
7.59736	0.514
7.63734	0.472
7.67732	0.522
7.7173	0.58
7.75728	0.609
7.79726	0.634
7.83724	0.64
7.87722	0.655
7.9172	0.619
7.95719	0.55
7.99717	0.46
8.03715	0.452
8.07713	0.496
8.11711	0.58
8.15709	0.631
8.19707	0.668
8.23705	0.7
8.27703	0.709
8.31701	0.695
8.35699	0.629
8.39697	0.645
8.43695	0.665
8.47693	0.688
8.51692	0.64
8.5569	0.559
8.59688	0.565
8.63686	0.54
8.67684	0.411
8.71682	0.552
8.7568	0.65
8.79678	0.708
8.83676	0.711
8.87674	0.696
8.91672	0.677
8.9567	0.614
8.99668	0.557
9.03666	0.521
9.07665	0.54
9.11663	0.621
9.15661	0.681
9.19659	0.727
9.23657	0.752
9.27655	0.791
9.31653	0.79
9.35651	0.785
9.39649	0.8
9.43647	0.813
9.47645	0.809
9.51643	0.819
9.55641	0.809
9.59639	0.811
9.63638	0.826
9.67636	0.806
9.71634	0.811
9.75632	0.811
9.7963	0.821
9.83628	0.814
9.87626	0.809
9.91624	0.809
9.95622	0.804
9.9962	0.798
10.0362	0.811
10.0762	0.814
10.1161	0.832
10.1561	0.831
10.1961	0.824
10.2361	0.814
10.2761	0.793
10.316	0.78
10.356	0.777
10.396	0.791
10.436	0.803
10.476	0.804
10.516	0.809
10.5559	0.791
10.5959	0.806
10.6359	0.819
10.6759	0.819
10.7159	0.852
10.7558	0.84
10.7958	0.849
10.8358	0.852
10.8758	0.857
10.9158	0.87
10.9557	0.852
10.9957	0.85
11.0357	0.85
11.0757	0.844
11.1157	0.836
11.1556	0.842
11.1956	0.85
11.2356	0.849
11.2756	0.847
11.3156	0.832
11.3555	0.839
11.3955	0.84
11.4355	0.84
11.4755	0.842
11.5155	0.84
11.5554	0.854
11.5954	0.852
11.6354	0.855
11.6754	0.855
11.7154	0.852
11.7554	0.847
11.7953	0.844
11.8353	0.844
11.8753	0.839
11.9153	0.819
11.9553	0.803
11.9952	0.796
12.0352	0.79
12.0752	0.8
12.1152	0.79
12.1552	0.772
12.1951	0.77
12.2351	0.772
12.2751	0.76
12.3151	0.763
12.3551	0.759
12.395	0.749
12.435	0.734
12.475	0.718
12.515	0.711
12.555	0.691
12.5949	0.685
12.6349	0.678
12.6749	0.678
12.7149	0.691
12.7549	0.713
12.7949	0.732
12.8348	0.739
12.8748	0.737
12.9148	0.739
12.9548	0.765
12.9948	0.759
13.0347	0.76
13.0747	0.765
13.1147	0.757
13.1547	0.759
13.1947	0.754
13.2346	0.737
13.2746	0.75
13.3146	0.744
13.3546	0.721
13.3946	0.737
13.4345	0.729
13.4745	0.722
13.5145	0.709
13.5545	0.685
13.5945	0.663
13.6344	0.642
13.6744	0.639
13.7144	0.622
13.7544	0.609
13.7944	0.618
13.8344	0.611
13.8743	0.624
13.9143	0.621
13.9543	0.622
13.9943	0.639
14.0343	0.639
14.0742	0.629
14.1142	0.644
14.1542	0.632
14.1942	0.618
14.2342	0.603
14.2741	0.57
14.3141	0.559
14.3541	0.56
14.3941	0.573
14.4341	0.598
14.474	0.621
14.514	0.639
14.554	0.65
14.594	0.627
14.634	0.632
14.6739	0.6
14.7139	0.588
14.7539	0.581
14.7939	0.583
14.8339	0.581
14.8738	0.581
14.9138	0.591
14.9538	0.603
14.9938	0.598
15.0338	0.598
15.0738	0.613
15.1137	0.601
15.1537	0.609
15.1937	0.618
15.2337	0.609
15.2737	0.618
15.3136	0.624
15.3536	0.629
15.3936	0.613
15.4336	0.608
15.4736	0.609
15.5135	0.609
15.5535	0.603
15.5935	0.618
15.6335	0.622
15.6735	0.624
15.7134	0.631
15.7534	0.631
15.7934	0.639
15.8334	0.644
15.8734	0.631
15.9133	0.626
15.9533	0.632
15.9933	0.64
