Infrared Spectrum: 6-CHLORO-2-METHYL-7-SULFAMYL-3,4-DIHYDRO-1,2,4-BENZOTHIADIAZINE-1,1-DIOXIDE
Formula: C8 H10 Cl N3 O4 S2
CAS: 90606-97-6
State: SOLID (NUJOL MULL)
Class: COBLENTZ
Instrument: PERKIN-ELMER
Sampling: TRANSMISSION
Resolution: 4
Origin: ABBOTT LABORATORIES - WASHBURN
MICROMETERS	TRANSMITTANCE
1.99	0.373
2.02444	0.38
2.05887	0.387
2.09331	0.3969
2.12774	0.4029
2.16218	0.4148
2.19661	0.423
2.23105	0.435
2.26548	0.4233
2.29992	0.418
2.33435	0.4268
2.36879	0.4338
2.40322	0.4419
2.43766	0.4506
2.47209	0.467
2.50653	0.475
2.54096	0.482
2.5754	0.493
2.60983	0.503
2.64427	0.5079
2.6787	0.5169
2.71314	0.522
2.74757	0.524
2.78201	0.5269
2.81644	0.5319
2.85088	0.548
2.88531	0.5162
2.91975	0.4317
2.95418	0.2301
2.98862	0.3348
3.02305	0.3489
3.05749	0.299
3.09192	0.3888
3.12636	0.406
3.16079	0.4249
3.19523	0.415
3.22966	0.396
3.2641	0.3587
3.29853	0.2252
3.33297	0.1255
3.3674	0.0172
3.40184	0.013
3.43627	0.0129
3.47071	0.019
3.50514	0.1374
3.53958	0.5021
3.57401	0.593
3.60845	0.619
3.64288	0.615
3.67732	0.617
3.71175	0.617
3.74619	0.6189
3.78062	0.622
3.81506	0.6358
3.84949	0.6499
3.88393	0.6597
3.91836	0.6844
3.9528	0.6898
3.98723	0.6948
4.02167	0.6968
4.05611	0.702
4.09054	0.704
4.12498	0.704
4.15941	0.709
4.19385	0.709
4.22828	0.7119
4.26272	0.7189
4.29715	0.723
4.33159	0.7299
4.36602	0.733
4.40046	0.73
4.43489	0.7368
4.46933	0.7418
4.50376	0.745
4.5382	0.749
4.57263	0.75
4.60707	0.75
4.6415	0.756
4.67594	0.759
4.71037	0.764
4.74481	0.7659
4.77924	0.766
4.81368	0.769
4.84811	0.7709
4.88255	0.768
4.91698	0.775
4.95142	0.778
4.98585	0.783
5.02029	0.7879
5.05472	0.7917
5.08916	0.794
5.12359	0.7967
5.15803	0.799
5.19246	0.801
5.2269	0.802
5.26133	0.8053
5.29577	0.8081
5.3302	0.809
5.36464	0.8121
5.39907	0.81
5.43351	0.8134
5.46794	0.8166
5.50238	0.82
5.53681	0.8201
5.57125	0.8164
5.60568	0.8233
5.64012	0.8322
5.67455	0.8262
5.70899	0.832
5.74342	0.832
5.77786	0.83
5.81229	0.825
5.84673	0.8263
5.88116	0.826
5.9156	0.8243
5.95003	0.8235
5.98447	0.8147
6.0189	0.8022
6.05334	0.7881
6.08778	0.7623
6.12221	0.7238
6.15665	0.645
6.19108	0.4136
6.22552	0.1652
6.25995	0.3064
6.29439	0.465
6.32882	0.5716
6.36326	0.6221
6.39769	0.5944
6.43213	0.4612
6.46656	0.5095
6.501	0.5797
6.53543	0.6397
6.56987	0.617
6.6043	0.449
6.63874	0.3663
6.67317	0.4636
6.70761	0.5382
6.74204	0.5384
6.77648	0.391
6.81091	0.1117
6.84535	0.082
6.87978	0.1034
6.91422	0.2324
6.94865	0.3413
6.98309	0.5143
7.01752	0.6025
7.05196	0.6492
7.08639	0.7094
7.12083	0.723
7.15526	0.7181
7.1897	0.6756
7.22413	0.4452
7.25857	0.2316
7.293	0.299
7.32744	0.301
7.36187	0.3457
7.39631	0.3304
7.43074	0.1701
7.46518	0.1282
7.49961	0.1143
7.53405	0.1038
7.56848	0.2038
7.60292	0.2793
7.63735	0.3401
7.67179	0.4342
7.70622	0.5
7.74066	0.4523
7.77509	0.401
7.80953	0.4925
7.84396	0.5533
7.8784	0.574
7.91283	0.5722
7.94727	0.6293
7.9817	0.6601
8.01614	0.6636
8.05057	0.605
8.08501	0.6018
8.11945	0.6382
8.15388	0.6842
8.18832	0.6996
8.22275	0.7006
8.25719	0.6957
8.29162	0.6732
8.32606	0.6087
8.36049	0.5098
8.39493	0.4951
8.42936	0.4235
8.4638	0.2466
8.49823	0.2119
8.53267	0.1717
8.5671	0.1477
8.60154	0.1395
8.63597	0.1388
8.67041	0.1895
8.70484	0.259
8.73928	0.2955
8.77371	0.3138
8.80815	0.3531
8.84258	0.4225
8.87702	0.4865
8.91145	0.4575
8.94589	0.4725
8.98032	0.5471
9.01476	0.5835
9.04919	0.6158
9.08363	0.6301
9.11806	0.6422
9.1525	0.645
9.18693	0.6397
9.22137	0.6252
9.2558	0.6292
9.29024	0.638
9.32467	0.64
9.35911	0.641
9.39354	0.6338
9.42798	0.5947
9.46241	0.4769
9.49685	0.345
9.53128	0.2539
9.56572	0.301
9.60015	0.3864
9.63459	0.4868
9.66902	0.5521
9.70346	0.5819
9.73789	0.61
9.77233	0.619
9.80676	0.5834
9.8412	0.4686
9.87563	0.447
9.91007	0.5416
9.9445	0.6191
9.97894	0.6484
10.0134	0.6684
10.0478	0.6945
10.0822	0.7043
10.1167	0.709
10.1511	0.7112
10.1856	0.712
10.22	0.709
10.2544	0.7049
10.2889	0.704
10.3233	0.7049
10.3577	0.709
10.3922	0.711
10.4266	0.709
10.461	0.712
10.4955	0.707
10.5299	0.6958
10.5643	0.6807
10.5988	0.6559
10.6332	0.6172
10.6676	0.5581
10.7021	0.4999
10.7365	0.4548
10.7709	0.448
10.8054	0.4567
10.8398	0.4863
10.8743	0.5176
10.9087	0.5295
10.9431	0.5302
10.9776	0.5006
11.012	0.482
11.0464	0.5012
11.0809	0.527
11.1153	0.5439
11.1497	0.5525
11.1842	0.562
11.2186	0.562
11.253	0.5727
11.2875	0.5957
11.3219	0.6274
11.3563	0.6469
11.3908	0.6598
11.4252	0.6689
11.4596	0.676
11.4941	0.678
11.5285	0.6613
11.563	0.5895
11.5974	0.5584
11.6318	0.6064
11.6663	0.633
11.7007	0.636
11.7351	0.6591
11.7696	0.683
11.804	0.6981
11.8384	0.7108
11.8729	0.7257
11.9073	0.7328
11.9417	0.743
11.9762	0.747
12.0106	0.756
12.045	0.754
12.0795	0.7567
12.1139	0.7598
12.1484	0.756
12.1828	0.761
12.2172	0.76
12.2517	0.757
12.2861	0.7567
12.3205	0.7489
12.355	0.743
12.3894	0.738
12.4238	0.728
12.4583	0.718
12.4927	0.6929
12.5271	0.6496
12.5616	0.6081
12.596	0.6121
12.6304	0.6597
12.6649	0.7013
12.6993	0.724
12.7337	0.7422
12.7682	0.752
12.8026	0.752
12.8371	0.749
12.8715	0.7463
12.9059	0.749
12.9404	0.746
12.9748	0.74
13.0092	0.738
13.0437	0.737
13.0781	0.728
13.1125	0.7237
13.147	0.7184
13.1814	0.7118
13.2158	0.704
13.2503	0.6979
13.2847	0.6918
13.3191	0.6829
13.3536	0.6692
13.388	0.655
13.4224	0.6401
13.4569	0.6264
13.4913	0.6016
13.5258	0.5754
13.5602	0.5548
13.5946	0.5101
13.6291	0.4667
13.6635	0.3967
13.6979	0.3127
13.7324	0.2703
13.7668	0.25
13.8012	0.2785
13.8357	0.3161
13.8701	0.3527
13.9045	0.3805
13.939	0.4114
13.9734	0.4192
14.0078	0.4161
14.0423	0.4305
14.0767	0.456
14.1111	0.4701
14.1456	0.477
14.18	0.475
14.2145	0.4573
14.2489	0.4093
14.2833	0.3788
14.3178	0.3603
14.3522	0.3553
14.3866	0.3623
14.4211	0.3706
14.4555	0.3905
14.4899	0.4044
14.5244	0.4249
14.5588	0.434
14.5932	0.4396
14.6277	0.4425
14.6621	0.4483
14.6965	0.453
14.731	0.4583
14.7654	0.465
14.7999	0.4722
14.8343	0.4891
14.8687	0.5098
14.9032	0.5285
14.9376	0.5409
14.972	0.5509
15.0065	0.5729
15.0409	0.579
15.0753	0.5945
15.1098	0.5901
15.1442	0.5818
15.1786	0.579
15.2131	0.5704
15.2475	0.5574
15.2819	0.5504
15.3164	0.5478
15.3508	0.5366
