Infrared Spectrum: 3-(2'-HYDROXY-1'-PENTYL) MERCAPTOTHIOPHENE
Formula: C9 H14 O S2
CAS: 90611-43-1
State: LIQUID
Class: COBLENTZ
Instrument: Not specified, most likely a prism, grating, or hybrid spectrometer.
Sampling: TRANSMISSION
Path length: 0.0025 CM
Resolution: 4
MICROMETERS	TRANSMITTANCE
2.027	0.82
2.06678	0.818
2.10656	0.81
2.14634	0.803
2.18612	0.8052
2.2259	0.813
2.26568	0.8097
2.30546	0.7939
2.34524	0.766
2.38502	0.78
2.4248	0.7741
2.46458	0.787
2.50436	0.779
2.54414	0.759
2.58392	0.7743
2.6237	0.7902
2.66348	0.792
2.70326	0.784
2.74304	0.767
2.78282	0.6806
2.8226	0.4185
2.86238	0.2278
2.90216	0.1104
2.94194	0.084
2.98172	0.0881
3.0215	0.1406
3.06128	0.2013
3.10106	0.3133
3.14084	0.4329
3.18062	0.5201
3.2204	0.5063
3.26018	0.3966
3.29996	0.6273
3.33974	0.579
3.37952	0.1266
3.4193	0.0319
3.45908	0.1122
3.49886	0.1156
3.53864	0.3877
3.57842	0.5762
3.6182	0.6403
3.65798	0.672
3.69776	0.6752
3.73754	0.6931
3.77732	0.701
3.8171	0.71
3.85688	0.729
3.89666	0.746
3.93644	0.7541
3.97622	0.7642
4.016	0.7792
4.05578	0.782
4.09556	0.777
4.13534	0.7821
4.17512	0.7837
4.2149	0.777
4.25468	0.766
4.29447	0.7721
4.33425	0.785
4.37403	0.789
4.41381	0.785
4.45359	0.7972
4.49337	0.8021
4.53315	0.805
4.57293	0.7989
4.61271	0.7952
4.65249	0.805
4.69227	0.8104
4.73205	0.8133
4.77183	0.8119
4.81161	0.813
4.85139	0.8098
4.89117	0.8025
4.93095	0.8035
4.97073	0.8081
5.01051	0.8079
5.05029	0.8051
5.09007	0.8102
5.12985	0.815
5.16963	0.813
5.20941	0.81
5.24919	0.8151
5.28897	0.8098
5.32875	0.8132
5.36853	0.8117
5.40831	0.812
5.44809	0.8081
5.48787	0.812
5.52765	0.81
5.56743	0.8097
5.60721	0.803
5.64699	0.7869
5.68677	0.7739
5.72655	0.759
5.76633	0.7741
5.80611	0.79
5.84589	0.775
5.88567	0.7749
5.92545	0.787
5.96523	0.7838
6.00501	0.7737
6.04479	0.7554
6.08457	0.7442
6.12435	0.7459
6.16413	0.734
6.20391	0.7423
6.24369	0.752
6.28347	0.7459
6.32325	0.7209
6.36303	0.6996
6.40281	0.6848
6.44259	0.6901
6.48237	0.696
6.52215	0.705
6.56193	0.6978
6.60171	0.6517
6.64149	0.549
6.68127	0.356
6.72105	0.2984
6.76083	0.4763
6.80061	0.4326
6.84039	0.1608
6.88017	0.1732
6.91995	0.2367
6.95973	0.2849
6.99951	0.2398
7.03929	0.2269
7.07907	0.2064
7.11885	0.1898
7.15863	0.2225
7.19841	0.2473
7.23819	0.2648
7.27797	0.2449
7.31775	0.3338
7.35753	0.3186
7.39731	0.1874
7.43709	0.18
7.47687	0.3002
7.51665	0.3641
7.55643	0.3616
7.59621	0.355
7.63599	0.3408
7.67577	0.331
7.71555	0.3186
7.75533	0.2859
7.79511	0.2868
7.83489	0.2957
7.87467	0.2963
7.91445	0.3325
7.95423	0.3737
7.99401	0.3914
8.03379	0.367
8.07357	0.3215
8.11335	0.278
8.15313	0.258
8.19291	0.2641
8.23269	0.3004
8.27247	0.3148
8.31225	0.2667
8.35203	0.252
8.39181	0.3618
8.43159	0.4388
8.47137	0.443
8.51115	0.4384
8.55093	0.4402
8.59071	0.4675
8.63049	0.498
8.67027	0.5257
8.71005	0.5514
8.74983	0.548
8.78962	0.4972
8.8294	0.3438
8.86918	0.2496
8.90896	0.1331
8.94874	0.1574
8.98852	0.2177
9.0283	0.2953
9.06808	0.2755
9.10786	0.1636
9.14764	0.1865
9.18742	0.224
9.2272	0.2142
9.26698	0.1863
9.30676	0.1705
9.34654	0.1527
9.38632	0.1404
9.4261	0.1696
9.46588	0.2493
9.50566	0.3393
9.54544	0.3699
9.58522	0.3471
9.625	0.2857
9.66478	0.1784
9.70456	0.1098
9.74434	0.087
9.78412	0.0956
9.8239	0.103
9.86368	0.102
9.90346	0.097
9.94324	0.1271
9.98302	0.1689
10.0228	0.2154
10.0626	0.2812
10.1024	0.3538
10.1421	0.4112
10.1819	0.4817
10.2217	0.5448
10.2615	0.586
10.3013	0.589
10.341	0.5611
10.3808	0.5075
10.4206	0.4188
10.4604	0.38
10.5002	0.3766
10.5399	0.418
10.5797	0.4893
10.6195	0.5768
10.6593	0.6252
10.6991	0.6562
10.7388	0.667
10.7786	0.665
10.8184	0.6591
10.8582	0.6407
10.898	0.621
10.9377	0.6033
10.9775	0.5755
11.0173	0.546
11.0571	0.4938
11.0969	0.4044
11.1366	0.2547
11.1764	0.0975
11.2162	0.1811
11.256	0.3641
11.2958	0.4255
11.3355	0.4816
11.3753	0.499
11.4151	0.5118
11.4549	0.5245
11.4947	0.5118
11.5344	0.4798
11.5742	0.3962
11.614	0.2942
11.6538	0.1442
11.6936	0.0609
11.7333	0.032
11.7731	0.0485
11.8129	0.1375
11.8527	0.2624
11.8925	0.3807
11.9322	0.4312
11.972	0.4549
12.0118	0.462
12.0516	0.4532
12.0914	0.4339
12.1311	0.429
12.1709	0.4307
12.2107	0.433
12.2505	0.4267
12.2903	0.42
12.33	0.408
12.3698	0.406
12.4096	0.4102
12.4494	0.4121
12.4892	0.3946
12.5289	0.355
12.5687	0.3149
12.6085	0.2449
12.6483	0.1773
12.6881	0.1308
12.7278	0.0907
12.7676	0.0573
12.8074	0.0387
12.8472	0.029
12.887	0.031
12.9267	0.036
12.9665	0.0367
13.0063	0.042
13.0461	0.044
13.0859	0.0452
13.1256	0.046
13.1654	0.044
13.2052	0.044
13.245	0.0459
13.2848	0.0507
13.3245	0.0677
13.3643	0.1158
13.4041	0.1594
13.4439	0.2094
13.4837	0.2569
13.5234	0.29
13.5632	0.3165
13.603	0.362
13.6428	0.3914
13.6826	0.4144
13.7223	0.4287
13.7621	0.4371
13.8019	0.446
13.8417	0.4549
13.8815	0.4625
13.9212	0.474
13.961	0.476
14.0008	0.477
14.0406	0.477
14.0804	0.4712
14.1201	0.4596
14.1599	0.447
14.1997	0.4336
14.2395	0.4206
14.2793	0.4058
14.319	0.3899
14.3588	0.3749
14.3986	0.3601
14.4384	0.3455
14.4782	0.3282
14.5179	0.3214
14.5577	0.3214
14.5975	0.3296
14.6373	0.3399
14.6771	0.3523
14.7168	0.372
14.7566	0.385
14.7964	0.4047
14.8362	0.4144
14.876	0.4272
14.9157	0.4401
14.9555	0.443
14.9953	0.445
15.0351	0.4575
15.0749	0.461
15.1146	0.461
15.1544	0.4561
15.1942	0.4532
15.234	0.449
15.2738	0.447
15.3135	0.442
15.3533	0.438
15.3931	0.433
15.4329	0.4288
15.4727	0.423
