Infrared Spectrum: 2-NORBORNANETHIOL, ACETATE
Formula: C9 H14 O S
CAS: 90611-37-3
State: SOLUTION (10% CCl4 FOR 3800-1340, 10% CS2 FOR 1340-470 CM^-^1) VS SOLVENT
Boiling point: 113 C AT 11 mmHg
Class: COBLENTZ III
Instrument: DOW KBr FOREPRISM-GRATING
Instrument parameters: BLAZED AT 3.5, 12.0, 20.0 MICRON AND CHANGED AT 5.0, 7.5, 14.9 MICRON
Sampling: TRANSMISSION
Path length: 0.010 CM, 0.012 CM
Resolution: 2
Origin: DOW CHEMICAL COMPANY
1/CM	TRANSMITTANCE
467.563	1.023
476.33	1.015
485.097	1.008
493.863	1
502.63	0.979
511.397	1
520.164	0.995
528.931	0.938
537.698	0.983
546.464	0.993
555.231	0.995
563.998	0.986
572.765	0.969
581.532	0.894
590.299	0.947
599.065	0.933
607.832	0.881
616.599	0.753
625.366	0.4079
634.133	0.049
642.9	0.587
651.666	0.876
660.433	0.946
669.2	0.968
677.967	0.968
686.734	0.947
695.5	0.905
704.267	0.957
713.034	0.975
721.801	0.977
730.568	0.977
739.335	0.977
748.101	0.972
756.868	0.953
765.635	0.817
774.402	0.844
783.169	0.954
791.936	0.971
800.702	0.938
809.469	0.922
818.236	0.954
827.003	0.954
835.77	0.85
844.536	0.953
853.303	0.98
862.07	0.965
870.837	0.933
879.604	0.898
888.371	0.94
897.137	0.859
905.904	0.866
914.671	0.859
923.438	0.757
932.205	0.741
940.972	0.451
949.738	0.171
958.505	0.3101
967.272	0.595
976.039	0.756
984.806	0.806
993.573	0.793
1002.34	0.741
1011.11	0.757
1019.87	0.79
1028.64	0.828
1037.41	0.819
1046.17	0.627
1054.94	0.818
1063.71	0.825
1072.47	0.804
1081.24	0.731
1090.01	0.6089
1098.77	0.3099
1107.54	0.035
1116.31	0.122
1125.07	0.284
1133.84	0.126
1142.61	0.114
1151.38	0.5101
1160.14	0.694
1168.91	0.818
1177.68	0.873
1186.44	0.876
1195.21	0.836
1203.98	0.825
1212.74	0.85
1221.51	0.892
1230.28	0.869
1239.04	0.733
1247.81	0.7559
1256.58	0.779
1265.34	0.7439
1274.11	0.84
1282.88	0.878
1291.64	0.756
1300.41	0.6671
1309.18	0.536
1317.95	0.8031
1326.71	0.873
1335.48	0.873
1344.25	0.872
1353.01	0.4778
1361.78	0.773
1370.55	0.892
1379.31	0.913
1388.08	0.916
1396.85	0.891
1405.61	0.855
1414.38	0.81
1423.15	0.745
1431.91	0.746
1440.68	0.744
1449.45	0.6279
1458.21	0.4424
1466.98	0.84
1475.75	0.828
1484.51	0.889
1493.28	0.91
1502.05	0.918
1510.82	0.933
1519.58	0.942
1528.35	0.944
1537.12	0.954
1545.88	0.984
1554.65	0.997
1563.42	0.997
1572.18	0.986
1580.95	0.977
1589.72	0.973
1598.48	0.965
1607.25	0.957
1616.02	0.954
1624.78	0.947
1633.55	0.931
1642.32	0.889
1651.08	0.803
1659.85	0.775
1668.62	0.709
1677.38	0.4008
1686.15	0.001
1694.92	0
1703.69	0.1841
1712.45	0.5951
1721.22	0.745
1729.99	0.786
1738.75	0.826
1747.52	0.873
1756.29	0.9
1765.05	0.916
1773.82	0.92
1782.59	0.932
1791.35	0.955
1800.12	0.975
1808.89	0.983
1817.65	0.987
1826.42	0.99
1835.19	0.988
1843.95	0.987
1852.72	0.987
1861.49	0.99
1870.26	0.988
1879.02	0.99
1887.79	0.988
1896.56	0.988
1905.32	0.991
1914.09	0.993
1922.86	0.993
1931.62	0.993
1940.39	0.993
1949.16	0.998
1957.92	0.997
1966.69	0.997
1975.46	0.998
1984.22	0.995
1992.99	0.987
2001.76	0.995
2010.52	0.998
2019.29	0.998
2028.06	0.998
2036.82	0.998
2045.59	0.997
2054.36	0.993
2063.13	0.99
2071.89	0.986
2080.66	0.984
2089.43	0.986
2098.19	0.987
2106.96	0.988
2115.73	0.991
2124.49	0.993
2133.26	0.993
2142.03	0.99
2150.79	0.99
2159.56	0.99
2168.33	0.988
2177.09	0.988
2185.86	0.988
2194.63	0.9841
2203.39	0.983
2212.16	0.9821
2220.93	0.977
2229.69	0.977
2238.46	0.9802
2247.23	0.979
2256	0.976
2264.76	0.979
2273.53	0.9772
2282.3	0.977
2291.06	0.976
2299.83	0.972
2308.6	0.968
2317.36	0.968
2326.13	0.968
2334.9	0.968
2343.66	0.968
2352.43	0.965
2361.2	0.9659
2369.96	0.966
2378.73	0.966
2387.5	0.9677
2396.26	0.966
2405.03	0.964
2413.8	0.962
2422.57	0.966
2431.33	0.966
2440.1	0.965
2448.87	0.9625
2457.63	0.96
2466.4	0.961
2475.17	0.961
2483.93	0.961
2492.7	0.961
2501.47	0.9602
2510.23	0.958
2519	0.96
2527.77	0.962
2536.53	0.964
2545.3	0.9636
2554.07	0.962
2562.83	0.957
2571.6	0.957
2580.37	0.9578
2589.13	0.958
2597.9	0.955
2606.67	0.953
2615.44	0.954
2624.2	0.954
2632.97	0.9514
2641.74	0.95
2650.5	0.9526
2659.27	0.9538
2668.04	0.9566
2676.8	0.957
2685.57	0.9542
2694.34	0.954
2703.1	0.9532
2711.87	0.953
2720.64	0.951
2729.4	0.9538
2738.17	0.954
2746.94	0.953
2755.7	0.9475
2764.47	0.9423
2773.24	0.9397
2782	0.943
2790.77	0.943
2799.54	0.943
2808.31	0.9393
2817.07	0.935
2825.84	0.9248
2834.61	0.9141
2843.37	0.8915
2852.14	0.8287
2860.91	0.741
2869.67	0.4277
2878.44	0.171
2887.21	0.4742
2895.97	0.718
2904.74	0.6441
2913.51	0.4178
2922.27	0.4229
2931.04	0.408
2939.81	0.2598
2948.57	0.0741
2957.34	0.033
2966.11	0.033
2974.88	0.1553
2983.64	0.3381
2992.41	0.5917
3001.18	0.6874
3009.94	0.7846
3018.71	0.8393
3027.48	0.8697
3036.24	0.8903
3045.01	0.9066
3053.78	0.917
3062.54	0.9266
3071.31	0.932
3080.08	0.9356
3088.84	0.9386
3097.61	0.94
3106.38	0.943
3115.14	0.947
3123.91	0.949
3132.68	0.95
3141.44	0.95
3150.21	0.95
3158.98	0.95
3167.75	0.95
3176.51	0.95
3185.28	0.95
3194.05	0.95
3202.81	0.951
3211.58	0.951
3220.35	0.951
3229.11	0.951
3237.88	0.951
3246.65	0.951
3255.41	0.953
3264.18	0.953
3272.95	0.953
3281.71	0.953
3290.48	0.953
3299.25	0.955
3308.01	0.9553
3316.78	0.95
3325.55	0.9449
3334.31	0.9343
3343.08	0.9203
3351.85	0.8968
3360.62	0.8931
3369.38	0.9101
3378.15	0.9332
3386.92	0.9465
3395.68	0.951
3404.45	0.951
3413.22	0.953
3421.98	0.9545
3430.75	0.957
3439.52	0.957
3448.28	0.96
3457.05	0.961
3465.82	0.961
3474.58	0.962
3483.35	0.961
3492.12	0.961
3500.88	0.961
3509.65	0.961
3518.42	0.961
3527.19	0.961
3535.95	0.959
3544.72	0.961
3553.49	0.962
3562.25	0.962
3571.02	0.9615
3579.79	0.9589
3588.55	0.964
3597.32	0.965
3606.09	0.966
3614.85	0.9655
3623.62	0.964
3632.39	0.962
3641.15	0.962
3649.92	0.9629
3658.69	0.964
3667.45	0.962
3676.22	0.9606
3684.99	0.957
3693.75	0.957
3702.52	0.955
3711.29	0.955
3720.06	0.955
3728.82	0.955
3737.59	0.9559
3746.36	0.957
3755.12	0.957
3763.89	0.958
3772.66	0.958
3781.42	0.958
3790.19	0.958
