Infrared Spectrum: Acetic acid, [3-(2-cyanoethyl)ureido]-, ethyl ester
Formula: C8 H13 N3 O3
CAS: 90641-79-5
State: SOLID (0.7 mg / 650 mg KBr DISC)
Class: COBLENTZ III
Instrument: PERKIN-ELMER 221 (GRATING)
Instrument parameters: FILTER AT 980 CM^-^1. GRATING 4000-1428 CM^-^1, NaCl PRISM 1428-650 CM^-^1
Sampling: TRANSMISSION
Resolution: 2
Origin: SOUTHERN RESEARCH INSTITUTE
1/CM	TRANSMITTANCE
607	0.5511
616.037	0.5469
625.074	0.5491
634.112	0.5615
643.149	0.5892
652.186	0.6222
661.223	0.6565
670.261	0.7115
679.298	0.7397
688.335	0.7495
697.372	0.7638
706.409	0.7663
715.447	0.7959
724.484	0.8348
733.521	0.8586
742.558	0.8629
751.595	0.8683
760.633	0.8338
769.67	0.8554
778.707	0.9242
787.744	0.9268
796.782	0.9106
805.819	0.8408
814.856	0.8517
823.893	0.9314
832.93	0.9331
841.968	0.9099
851.005	0.9146
860.042	0.8605
869.079	0.8683
878.116	0.9338
887.154	0.9292
896.191	0.9168
905.228	0.9029
914.265	0.8909
923.303	0.8907
932.34	0.8826
941.377	0.9002
950.414	0.8977
959.451	0.8876
968.489	0.8809
977.526	0.8285
986.563	0.8106
995.6	0.8009
1004.64	0.7252
1013.67	0.6117
1022.71	0.5031
1031.75	0.6418
1040.79	0.8003
1049.82	0.8032
1058.86	0.778
1067.9	0.6618
1076.94	0.4678
1085.97	0.646
1095.01	0.7078
1104.05	0.7065
1113.08	0.704
1122.12	0.7233
1131.16	0.7199
1140.2	0.7073
1149.23	0.6683
1158.27	0.6308
1167.31	0.5939
1176.34	0.5497
1185.38	0.4556
1194.42	0.3524
1203.46	0.2978
1212.49	0.2499
1221.53	0.2524
1230.57	0.367
1239.61	0.5134
1248.64	0.52
1257.68	0.5045
1266.72	0.5524
1275.75	0.5185
1284.79	0.4792
1293.83	0.5457
1302.87	0.6123
1311.9	0.6765
1320.94	0.6774
1329.98	0.7406
1339.01	0.7413
1348.05	0.6067
1357.09	0.677
1366.13	0.5256
1375.16	0.5849
1384.2	0.6297
1393.24	0.6598
1402.27	0.4808
1411.31	0.5153
1420.35	0.5311
1429.39	0.695
1438.42	0.4066
1447.46	0.6606
1456.5	0.7802
1465.54	0.7521
1474.57	0.7662
1483.61	0.8191
1492.65	0.8098
1501.68	0.7726
1510.72	0.716
1519.76	0.6612
1528.8	0.5862
1537.83	0.499
1546.87	0.5482
1555.91	0.5306
1564.94	0.4695
1573.98	0.3784
1583.02	0.2873
1592.06	0.2114
1601.09	0.2106
1610.13	0.2344
1619.17	0.2318
1628.21	0.2027
1637.24	0.1282
1646.28	0.1386
1655.32	0.2893
1664.35	0.3698
1673.39	0.4391
1682.43	0.4907
1691.47	0.4897
1700.5	0.5223
1709.54	0.536
1718.58	0.44
1727.61	0.1673
1736.65	0.203
1745.69	0.3162
1754.73	0.4358
1763.76	0.5054
1772.8	0.5477
1781.84	0.5757
1790.88	0.5982
1799.91	0.6172
1808.95	0.6348
1817.99	0.6522
1827.02	0.6664
1836.06	0.6822
1845.1	0.6993
1854.14	0.7127
1863.17	0.7213
1872.21	0.7267
1881.25	0.7319
1890.28	0.7371
1899.32	0.7428
1908.36	0.7483
1917.4	0.7537
1926.43	0.7591
1935.47	0.7642
1944.51	0.7682
1953.55	0.7722
1962.58	0.7762
1971.62	0.7803
1980.66	0.7845
1989.69	0.7883
1998.73	0.7928
2007.77	0.7969
2016.81	0.801
2025.84	0.8039
2034.88	0.8047
2043.92	0.8046
2052.95	0.8041
2061.99	0.804
2071.03	0.8045
2080.07	0.8069
2089.1	0.8107
2098.14	0.8137
2107.18	0.8148
2116.21	0.8145
2125.25	0.8135
2134.29	0.8167
2143.33	0.8206
2152.36	0.8244
2161.4	0.8279
2170.44	0.8303
2179.48	0.8326
2188.51	0.8348
2197.55	0.8365
2206.59	0.8377
2215.62	0.8384
2224.66	0.8384
2233.7	0.8353
2242.74	0.7837
2251.77	0.6744
2260.81	0.7929
2269.85	0.8172
2278.88	0.8244
2287.92	0.8266
2296.96	0.8278
2306	0.829
2315.03	0.8309
2324.07	0.8339
2333.11	0.8366
2342.15	0.8387
2351.18	0.84
2360.22	0.8409
2369.26	0.8408
2378.29	0.8398
2387.33	0.8384
2396.37	0.8363
2405.41	0.8339
2414.44	0.8325
2423.48	0.8325
2432.52	0.8322
2441.55	0.8344
2450.59	0.839
2459.63	0.8425
2468.67	0.8432
2477.7	0.8435
2486.74	0.873
2495.78	0.841
2504.82	0.8402
2513.85	0.8394
2522.89	0.839
2531.93	0.839
2540.96	0.8399
2550	0.8406
2559.04	0.841
2568.08	0.8419
2577.11	0.8412
2586.15	0.8388
2595.19	0.8362
2604.22	0.8338
2613.26	0.831
2622.3	0.8319
2631.34	0.836
2640.37	0.8387
2649.41	0.8382
2658.45	0.837
2667.48	0.8371
2676.52	0.8376
2685.56	0.8392
2694.6	0.8377
2703.63	0.8356
2712.67	0.833
2721.71	0.831
2730.75	0.8289
2739.78	0.826
2748.82	0.8226
2757.86	0.8201
2766.89	0.8192
2775.93	0.821
2784.97	0.8117
2794.01	0.803
2803.04	0.7962
2812.08	0.7905
2821.12	0.7855
2830.15	0.7825
2839.19	0.7761
2848.23	0.7621
2857.27	0.7573
2866.3	0.746
2875.34	0.7408
2884.38	0.7405
2893.42	0.7374
2902.45	0.7173
2911.49	0.6865
2920.53	0.7031
2929.56	0.6909
2938.6	0.6457
2947.64	0.6094
2956.68	0.6376
2965.71	0.6182
2974.75	0.6022
2983.79	0.5699
2992.82	0.5465
3001.86	0.6173
3010.9	0.6881
3019.94	0.7046
3028.97	0.7036
3038.01	0.6849
3047.05	0.6742
3056.09	0.6433
3065.12	0.6486
3074.16	0.6572
3083.2	0.6599
3092.23	0.6553
3101.27	0.6724
3110.31	0.6914
3119.35	0.6975
3128.38	0.6926
3137.42	0.6765
3146.46	0.6504
3155.49	0.6145
3164.53	0.6189
3173.57	0.6255
3182.61	0.6306
3191.64	0.6329
3200.68	0.6326
3209.72	0.6316
3218.76	0.6306
3227.79	0.6279
3236.83	0.6214
3245.87	0.6004
3254.9	0.583
3263.94	0.5644
3272.98	0.5446
3282.02	0.5157
3291.05	0.4818
3300.09	0.437
3309.13	0.3708
3318.16	0.322
3327.2	0.3175
3336.24	0.3384
3345.28	0.345
3354.31	0.3251
3363.35	0.3101
3372.39	0.3161
3381.42	0.356
3390.46	0.3862
3399.5	0.4408
3408.54	0.4703
3417.57	0.501
3426.61	0.523
3435.65	0.5531
3444.69	0.5645
3453.72	0.5725
3462.76	0.5795
3471.8	0.5907
3480.83	0.6082
3489.87	0.613
3498.91	0.6145
3507.95	0.618
3516.98	0.6281
3526.02	0.639
3535.06	0.6507
3544.09	0.6619
3553.13	0.6713
3562.17	0.679
3571.21	0.6858
3580.24	0.6958
3589.28	0.7013
3598.32	0.7047
3607.36	0.7085
3616.39	0.7138
3625.43	0.7213
3634.47	0.7265
3643.5	0.7296
3652.54	0.7319
3661.58	0.7329
3670.62	0.7338
3679.65	0.7343
3688.69	0.7346
3697.73	0.7341
3706.76	0.7407
3715.8	0.7465
3724.84	0.7484
3733.88	0.7491
3742.91	0.7497
3751.95	0.75
3760.99	0.7504
3770.03	0.7507
3779.06	0.751
3788.1	0.7513
3797.14	0.7516
3806.17	0.7519
3815.21	0.7521
3824.25	0.7523
3833.29	0.7525
3842.32	0.7527
3851.36	0.7527
3860.4	0.7526
3869.43	0.7524
3878.47	0.7522
3887.51	0.7521
3896.55	0.7519
3905.58	0.7518
3914.62	0.7517
3923.66	0.7516
3932.7	0.7515
3941.73	0.751
3950.77	0.7504
3959.81	0.7499
3968.84	0.7495
3977.88	0.7494
3986.92	0.7492
3995.96	0.7491
4004.99	0.7489
4014.03	0.7488
