Infrared Spectrum: 3,3-DIMETHYL-5-0XA BICYCLO[2.4.0]OCTAN-2-OL
Formula: C9 H16 O2
CAS: 90646-73-4
Boiling point: 102 C AT 10 mmHg
Class: COBLENTZ
Instrument: Not specified, most likely a prism, grating, or hybrid spectrometer.
Sampling: TRANSMISSION
Path length: SMEAR
Resolution: 4
Origin: TENNESSEE EASTMAN COMPANY, RESEARCH LABORATORIES
MICROMETERS	TRANSMITTANCE
2.02	0.905
2.0598	0.908
2.0996	0.912
2.1394	0.913
2.1792	0.917
2.219	0.92
2.2588	0.917
2.2986	0.913
2.3384	0.913
2.3782	0.915
2.418	0.913
2.4578	0.913
2.4976	0.915
2.5374	0.915
2.5772	0.915
2.617	0.915
2.6568	0.917
2.6966	0.915
2.7364	0.902
2.7762	0.761
2.816	0.631
2.8558	0.429
2.8956	0.26
2.9354	0.248
2.9752	0.326
3.015	0.429
3.0548	0.54
3.0946	0.656
3.1344	0.746
3.1742	0.809
3.214	0.849
3.2538	0.868
3.2936	0.875
3.3334	0.616
3.3732	0.091
3.413	0.107
3.4528	0.2
3.4926	0.182
3.5324	0.573
3.5722	0.774
3.612	0.819
3.6518	0.807
3.6916	0.769
3.7314	0.82
3.7712	0.847
3.811	0.85
3.8508	0.88
3.8906	0.907
3.9304	0.912
3.9702	0.918
4.01	0.927
4.0498	0.93
4.0896	0.933
4.1294	0.935
4.1692	0.936
4.209	0.938
4.2488	0.938
4.2886	0.936
4.3284	0.938
4.3682	0.945
4.408	0.951
4.4478	0.951
4.4876	0.953
4.5274	0.953
4.5672	0.953
4.607	0.951
4.6468	0.951
4.6866	0.951
4.7264	0.955
4.7662	0.955
4.806	0.958
4.8458	0.96
4.8856	0.961
4.9254	0.961
4.9652	0.96
5.005	0.965
5.0448	0.961
5.0846	0.958
5.1244	0.958
5.1642	0.958
5.204	0.958
5.2438	0.956
5.2836	0.958
5.3234	0.96
5.3632	0.961
5.403	0.963
5.4428	0.961
5.4826	0.963
5.5224	0.963
5.5622	0.961
5.602	0.953
5.6418	0.941
5.6816	0.94
5.7214	0.94
5.7612	0.936
5.801	0.93
5.8408	0.93
5.8806	0.932
5.9204	0.933
5.9602	0.933
6	0.936
6.0398	0.932
6.0796	0.925
6.1194	0.925
6.1592	0.93
6.199	0.935
6.2388	0.936
6.2786	0.94
6.3184	0.943
6.3582	0.943
6.398	0.94
6.4378	0.938
6.4776	0.935
6.5174	0.93
6.5572	0.922
6.597	0.913
6.6368	0.9
6.6766	0.87
6.7164	0.784
6.7562	0.61
6.796	0.369
6.8358	0.426
6.8756	0.499
6.9154	0.533
6.9552	0.585
6.995	0.665
7.0348	0.661
7.0746	0.641
7.1144	0.679
7.1542	0.719
7.194	0.658
7.2338	0.555
7.2736	0.577
7.3134	0.558
7.3532	0.583
7.393	0.635
7.4328	0.597
7.4726	0.653
7.5124	0.643
7.5522	0.568
7.592	0.557
7.6318	0.587
7.6716	0.62
7.7114	0.615
7.7512	0.555
7.791	0.601
7.8308	0.608
7.8706	0.593
7.9104	0.621
7.9502	0.62
7.99	0.558
8.0298	0.543
8.0696	0.572
8.1094	0.597
8.1492	0.693
8.189	0.728
8.2288	0.699
8.2686	0.603
8.3084	0.519
8.3482	0.52
8.388	0.538
8.4278	0.56
8.4676	0.578
8.5074	0.577
8.5472	0.558
8.587	0.525
8.6268	0.543
8.6666	0.593
8.7064	0.608
8.7462	0.573
8.786	0.479
8.8258	0.29
8.8656	0.152
8.9054	0.102
8.9452	0.109
8.985	0.179
9.0248	0.265
9.0646	0.334
9.1044	0.343
9.1442	0.281
9.184	0.252
9.2238	0.179
9.2636	0.101
9.3034	0.092
9.3432	0.162
9.383	0.228
9.4228	0.199
9.4626	0.135
9.5024	0.182
9.5422	0.308
9.582	0.341
9.6218	0.346
9.6616	0.494
9.7014	0.616
9.7412	0.679
9.781	0.699
9.8208	0.698
9.8606	0.669
9.9004	0.661
9.9402	0.673
9.98	0.679
10.0198	0.679
10.0596	0.62
10.0994	0.623
10.1392	0.688
10.179	0.734
10.2188	0.764
10.2586	0.776
10.2984	0.789
10.3382	0.789
10.378	0.782
10.4178	0.782
10.4576	0.759
10.4974	0.723
10.5372	0.708
10.577	0.681
10.6168	0.661
10.6566	0.683
10.6964	0.711
10.7362	0.689
10.776	0.598
10.8158	0.585
10.8556	0.676
10.8954	0.721
10.9352	0.703
10.975	0.626
11.0148	0.578
11.0546	0.548
11.0944	0.494
11.1342	0.505
11.174	0.52
11.2138	0.485
11.2536	0.532
11.2934	0.613
11.3332	0.674
11.373	0.708
11.4128	0.728
11.4526	0.741
11.4924	0.704
11.5322	0.636
11.572	0.625
11.6118	0.625
11.6516	0.645
11.6914	0.681
11.7312	0.728
11.771	0.757
11.8108	0.782
11.8506	0.8
11.8904	0.807
11.9302	0.817
11.97	0.817
12.0098	0.791
12.0496	0.759
12.0894	0.749
12.1292	0.769
12.169	0.8
12.2088	0.819
12.2486	0.82
12.2884	0.812
12.3282	0.809
12.368	0.81
12.4078	0.822
12.4476	0.837
12.4874	0.844
12.5272	0.849
12.567	0.85
12.6068	0.852
12.6466	0.85
12.6864	0.849
12.7262	0.845
12.766	0.845
12.8058	0.84
12.8456	0.83
12.8854	0.824
12.9252	0.822
12.965	0.82
13.0048	0.814
13.0446	0.807
13.0844	0.805
13.1242	0.81
13.164	0.815
13.2038	0.817
13.2436	0.814
13.2834	0.802
13.3232	0.784
13.363	0.761
13.4028	0.746
13.4426	0.726
13.4824	0.723
13.5222	0.724
13.562	0.726
13.6018	0.724
13.6416	0.729
13.6814	0.742
13.7212	0.757
13.761	0.771
13.8008	0.772
13.8406	0.779
13.8804	0.781
13.9202	0.782
13.96	0.782
13.9998	0.777
14.0396	0.771
14.0794	0.766
14.1192	0.761
14.159	0.754
14.1988	0.747
14.2386	0.742
14.2784	0.736
14.3182	0.724
14.358	0.718
14.3978	0.709
14.4376	0.699
14.4774	0.689
14.5172	0.681
14.557	0.676
14.5968	0.674
14.6366	0.674
14.6764	0.673
14.7162	0.673
14.756	0.671
14.7958	0.668
14.8356	0.661
14.8754	0.655
14.9152	0.648
14.955	0.635
14.9948	0.631
15.0346	0.631
15.0744	0.631
15.1142	0.633
15.154	0.638
15.1938	0.636
15.2336	0.64
15.2734	0.636
15.3132	0.633
15.353	0.631
15.3928	0.628
15.4326	0.628
15.4724	0.626
15.5122	0.621
15.552	0.621
15.5918	0.62
15.6316	0.616
15.6714	0.615
15.7112	0.611
15.751	0.608
15.7908	0.608
15.8306	0.605
15.8704	0.603
15.9102	0.603
15.95	0.603
15.9898	0.601
