Infrared Spectrum: UREA, 1-METHYL-1-NITROSO-3-[2-(9H-PURINE-6-YLTHIO)ETHYL]-
Formula: C9 H11 N7 O2 S
CAS: 90642-35-6
State: SOLID (1.0 mg / 650 mg KBr DISC)
Class: COBLENTZ III
Instrument: PERKIN-ELMER 221 (GRATING)
Instrument parameters: FILTER AT 2490, 980 CM^-^1. GRATING 4000-1428 CM^-^1, NaCl PRISM 1428-650 CM^-^1
Sampling: TRANSMISSION
Resolution: 2
Origin: SOUTHERN RESEARCH INSTITUTE
1/CM	TRANSMITTANCE
626.923	0.558
635.833	0.5288
644.743	0.5604
653.653	0.7297
662.563	0.737
671.473	0.7106
680.384	0.6562
689.294	0.7866
698.204	0.789
707.114	0.7899
716.024	0.7805
724.934	0.7019
733.844	0.759
742.754	0.7523
751.664	0.7223
760.574	0.7627
769.485	0.7654
778.395	0.7285
787.305	0.5092
796.215	0.6172
805.125	0.791
814.035	0.7851
822.945	0.7486
831.855	0.6436
840.765	0.5037
849.675	0.451
858.586	0.5536
867.496	0.683
876.406	0.6103
885.316	0.5914
894.226	0.729
903.136	0.7008
912.046	0.6326
920.956	0.5489
929.866	0.508
938.776	0.4317
947.687	0.2313
956.597	0.3124
965.507	0.5592
974.417	0.668
983.327	0.668
992.237	0.6652
1001.15	0.5039
1010.06	0.4317
1018.97	0.6362
1027.88	0.706
1036.79	0.7157
1045.7	0.6605
1054.61	0.7149
1063.52	0.7424
1072.43	0.737
1081.34	0.7513
1090.25	0.7614
1099.16	0.759
1108.07	0.7381
1116.98	0.7113
1125.89	0.6737
1134.8	0.6242
1143.71	0.4738
1152.62	0.3294
1161.53	0.3218
1170.44	0.5177
1179.35	0.5968
1188.26	0.5694
1197.17	0.4462
1206.08	0.5832
1214.99	0.5913
1223.9	0.4287
1232.81	0.1968
1241.72	0.4939
1250.63	0.5687
1259.54	0.6301
1268.45	0.6701
1277.36	0.683
1286.27	0.6747
1295.18	0.652
1304.09	0.6406
1313	0.5348
1321.91	0.3826
1330.82	0.5801
1339.73	0.697
1348.64	0.6957
1357.55	0.6458
1366.46	0.643
1375.37	0.4463
1384.28	0.3235
1393.19	0.5816
1402.1	0.6116
1411.01	0.611
1419.92	0.4995
1428.83	0.5357
1437.74	0.4348
1446.65	0.4974
1455.56	0.5173
1464.47	0.3767
1473.38	0.2267
1482.29	0.2572
1491.2	0.4998
1500.11	0.5912
1509.02	0.5886
1517.93	0.4623
1526.84	0.2731
1535.75	0.1338
1544.66	0.3031
1553.57	0.4183
1562.48	0.3561
1571.39	0.1537
1580.3	0.2391
1589.21	0.4323
1598.12	0.4046
1607.03	0.6239
1615.94	0.681
1624.85	0.681
1633.76	0.681
1642.67	0.681
1651.58	0.681
1660.49	0.682
1669.4	0.6709
1678.31	0.6073
1687.22	0.591
1696.13	0.5054
1705.04	0.2671
1713.95	0.1711
1722.86	0.3398
1731.78	0.3882
1740.69	0.5391
1749.6	0.6512
1758.51	0.6973
1767.42	0.703
1776.33	0.7086
1785.24	0.7275
1794.15	0.736
1803.06	0.7464
1811.97	0.7533
1820.88	0.7576
1829.79	0.7635
1838.7	0.7724
1847.61	0.785
1856.52	0.789
1865.43	0.789
1874.34	0.789
1883.25	0.789
1892.16	0.7908
1901.07	0.793
1909.98	0.7958
1918.89	0.805
1927.8	0.8104
1936.71	0.814
1945.62	0.818
1954.53	0.818
1963.44	0.818
1972.35	0.817
1981.26	0.815
1990.17	0.818
1999.08	0.819
2007.99	0.819
2016.9	0.8187
2025.81	0.818
2034.72	0.815
2043.63	0.813
2052.54	0.812
2061.45	0.811
2070.36	0.811
2079.27	0.811
2088.18	0.811
2097.09	0.806
2106	0.804
2114.91	0.801
2123.82	0.7975
2132.73	0.795
2141.64	0.795
2150.55	0.793
2159.46	0.7927
2168.37	0.788
2177.28	0.783
2186.19	0.781
2195.1	0.775
2204.01	0.7674
2212.92	0.7597
2221.83	0.757
2230.74	0.756
2239.65	0.7527
2248.56	0.7449
2257.47	0.7234
2266.38	0.7125
2275.29	0.7087
2284.2	0.7037
2293.11	0.7
2302.02	0.6957
2310.93	0.689
2319.84	0.6772
2328.75	0.6587
2337.66	0.6475
2346.57	0.6377
2355.48	0.6282
2364.39	0.617
2373.3	0.617
2382.21	0.617
2391.12	0.617
2400.03	0.617
2408.94	0.6167
2417.85	0.6145
2426.76	0.61
2435.67	0.605
2444.58	0.604
2453.49	0.5967
2462.4	0.5905
2471.31	0.5754
2480.22	0.57
2489.13	0.5588
2498.04	0.5477
2506.95	0.5425
2515.86	0.5337
2524.77	0.5294
2533.68	0.524
2542.59	0.5207
2551.5	0.518
2560.41	0.52
2569.32	0.523
2578.23	0.5303
2587.14	0.543
2596.05	0.554
2604.96	0.553
2613.87	0.5495
2622.78	0.541
2631.69	0.539
2640.61	0.539
2649.52	0.538
2658.43	0.5403
2667.34	0.545
2676.25	0.5503
2685.16	0.5563
2694.07	0.5603
2702.98	0.5663
2711.89	0.5713
2720.8	0.5808
2729.71	0.595
2738.62	0.5911
2747.53	0.5759
2756.44	0.5585
2765.35	0.551
2774.26	0.552
2783.17	0.556
2792.08	0.5573
2800.99	0.5713
2809.9	0.5868
2818.81	0.5973
2827.72	0.6098
2836.63	0.6233
2845.54	0.6343
2854.45	0.6546
2863.36	0.663
2872.27	0.664
2881.18	0.664
2890.09	0.664
2899	0.6577
2907.91	0.6437
2916.82	0.6346
2925.73	0.5965
2934.64	0.5827
2943.55	0.573
2952.46	0.571
2961.37	0.5975
2970.28	0.613
2979.19	0.6198
2988.1	0.6548
2997.01	0.6764
3005.92	0.6933
3014.83	0.6985
3023.74	0.6977
3032.65	0.6769
3041.56	0.6487
3050.47	0.639
3059.38	0.6353
3068.29	0.6435
3077.2	0.6678
3086.11	0.6773
3095.02	0.68
3103.93	0.6813
3112.84	0.6901
3121.75	0.7046
3130.66	0.708
3139.57	0.709
3148.48	0.709
3157.39	0.709
3166.3	0.7077
3175.21	0.704
3184.12	0.703
3193.03	0.704
3201.94	0.707
3210.85	0.704
3219.76	0.702
3228.67	0.701
3237.58	0.6995
3246.49	0.689
3255.4	0.688
3264.31	0.685
3273.22	0.685
3282.13	0.6807
3291.04	0.674
3299.95	0.6612
3308.86	0.65
3317.77	0.6445
3326.68	0.6282
3335.59	0.6019
3344.5	0.5651
3353.41	0.5246
3362.32	0.4861
3371.23	0.4338
3380.14	0.4291
3389.05	0.4938
3397.96	0.5559
3406.87	0.5985
3415.78	0.6043
3424.69	0.6115
3433.6	0.6343
3442.51	0.6395
3451.42	0.651
3460.33	0.6633
3469.24	0.6745
3478.15	0.6883
3487.06	0.696
3495.97	0.6985
3504.88	0.7073
3513.79	0.7153
3522.7	0.7263
3531.61	0.736
3540.52	0.7376
3549.43	0.7445
3558.35	0.7533
3567.26	0.7666
3576.17	0.7765
3585.08	0.781
3593.99	0.7838
3602.9	0.7968
3611.81	0.8115
3620.72	0.8243
3629.63	0.8313
3638.54	0.837
3647.45	0.8373
3656.36	0.8471
3665.27	0.853
3674.18	0.85
3683.09	0.854
3692	0.8573
3700.91	0.859
3709.82	0.8587
3718.73	0.858
3727.64	0.858
3736.55	0.8583
3745.46	0.859
3754.37	0.8633
3763.28	0.864
3772.19	0.864
3781.1	0.863
3790.01	0.863
3798.92	0.861
3807.83	0.857
3816.74	0.857
3825.65	0.857
3834.56	0.858
3843.47	0.857
3852.38	0.857
3861.29	0.8565
3870.2	0.855
3879.11	0.8543
3888.02	0.8547
3896.93	0.855
3905.84	0.858
3914.75	0.858
3923.66	0.858
3932.57	0.858
3941.48	0.858
3950.39	0.858
3959.3	0.858
3968.21	0.858
3977.12	0.859
3986.03	0.858
3994.94	0.858
4003.85	0.857
4012.76	0.857
