Infrared Spectrum: 1,3-CYCLOHEXANEDIMETHANOL, 2-HYDROXY-5-METHYL-
Formula: C9 H18 O3
CAS: 90677-23-9
State: SOLID (KBr PELLET)
Melting point: 115-117 C
Class: COBLENTZ
Instrument: Not specified, most likely a prism, grating, or hybrid spectrometer.
Sampling: TRANSMISSION
Resolution: 4
Origin: TENNESSEE EASTMAN COMPANY, RESEARCH LABORATORIES
MICROMETERS	TRANSMITTANCE
2.027	0.601
2.06818	0.608
2.10937	0.623
2.15055	0.638
2.19174	0.65
2.23292	0.659
2.27411	0.662
2.31529	0.671
2.35648	0.686
2.39766	0.695
2.43884	0.7
2.48003	0.705
2.52121	0.717
2.5624	0.724
2.60358	0.727
2.64477	0.737
2.68595	0.742
2.72713	0.705
2.76832	0.604
2.8095	0.509
2.85069	0.354
2.89187	0.202
2.93306	0.039
2.97424	0.02
3.01543	0.015
3.05661	0.013
3.09779	0.013
3.13898	0.032
3.18016	0.105
3.22135	0.274
3.26253	0.437
3.30372	0.531
3.3449	0.321
3.38608	0.057
3.42727	0.054
3.46845	0.044
3.50964	0.286
3.55082	0.512
3.59201	0.594
3.63319	0.597
3.67438	0.597
3.71556	0.647
3.75674	0.625
3.79793	0.652
3.83911	0.698
3.8803	0.725
3.92148	0.754
3.96267	0.8
4.00385	0.826
4.04504	0.829
4.08622	0.838
4.1274	0.848
4.16859	0.882
4.20977	0.896
4.25096	0.911
4.29214	0.901
4.33333	0.909
4.37451	0.93
4.41569	0.935
4.45688	0.938
4.49806	0.943
4.53925	0.945
4.58043	0.947
4.62162	0.947
4.6628	0.947
4.70399	0.947
4.74517	0.947
4.78635	0.936
4.82754	0.931
4.86872	0.94
4.90991	0.948
4.95109	0.947
4.99228	0.95
5.03346	0.959
5.07464	0.959
5.11583	0.964
5.15701	0.965
5.1982	0.964
5.23938	0.945
5.28057	0.957
5.32175	0.959
5.36294	0.96
5.40412	0.967
5.4453	0.962
5.48649	0.959
5.52767	0.96
5.56886	0.95
5.61004	0.948
5.65123	0.94
5.69241	0.94
5.73359	0.918
5.77478	0.916
5.81596	0.909
5.85715	0.897
5.89833	0.873
5.93952	0.868
5.9807	0.844
6.02189	0.834
6.06307	0.802
6.10425	0.798
6.14544	0.8
6.18662	0.81
6.22781	0.824
6.26899	0.833
6.31018	0.838
6.35136	0.826
6.39255	0.816
6.43373	0.798
6.47491	0.778
6.5161	0.783
6.55728	0.737
6.59847	0.701
6.63965	0.655
6.68084	0.531
6.72202	0.408
6.7632	0.281
6.80439	0.141
6.84557	0.074
6.88676	0.195
6.92794	0.218
6.96913	0.321
7.01031	0.432
7.0515	0.459
7.09268	0.528
7.13386	0.594
7.17505	0.603
7.21623	0.425
7.25742	0.287
7.2986	0.487
7.33979	0.548
7.38097	0.482
7.42215	0.332
7.46334	0.269
7.50452	0.446
7.54571	0.248
7.58689	0.149
7.62808	0.165
7.66926	0.235
7.71045	0.461
7.75163	0.577
7.79281	0.614
7.834	0.519
7.87518	0.349
7.91637	0.417
7.95755	0.458
7.99874	0.507
8.03992	0.572
8.08111	0.538
8.12229	0.536
8.16347	0.427
8.20466	0.579
8.24584	0.655
8.28703	0.671
8.32821	0.71
8.3694	0.732
8.41058	0.746
8.45176	0.746
8.49295	0.722
8.53413	0.659
8.57532	0.415
8.6165	0.323
8.65769	0.117
8.69887	0.289
8.74006	0.468
8.78124	0.507
8.82242	0.352
8.86361	0.098
8.90479	0.144
8.94598	0.431
8.98716	0.584
9.02835	0.678
9.06953	0.701
9.11071	0.713
9.1519	0.671
9.19308	0.567
9.23427	0.536
9.27545	0.616
9.31664	0.495
9.35782	0.245
9.39901	0.136
9.44019	0.047
9.48137	0.037
9.52256	0.155
9.56374	0.091
9.60493	0.023
9.64611	0.109
9.6873	0.294
9.72848	0.459
9.76967	0.557
9.81085	0.601
9.85203	0.557
9.89322	0.599
9.9344	0.591
9.97559	0.379
10.0168	0.33
10.058	0.56
10.0991	0.689
10.1403	0.734
10.1815	0.747
10.2227	0.72
10.2639	0.657
10.3051	0.533
10.3462	0.281
10.3874	0.066
10.4286	0.066
10.4698	0.265
10.511	0.492
10.5522	0.582
10.5934	0.505
10.6345	0.301
10.6757	0.327
10.7169	0.649
10.7581	0.759
10.7993	0.821
10.8405	0.839
10.8816	0.848
10.9228	0.858
10.964	0.867
11.0052	0.858
11.0464	0.848
11.0876	0.831
11.1287	0.781
11.1699	0.666
11.2111	0.488
11.2523	0.618
11.2935	0.752
11.3347	0.795
11.3759	0.809
11.417	0.819
11.4582	0.816
11.4994	0.795
11.5406	0.764
11.5818	0.708
11.623	0.54
11.6641	0.398
11.7053	0.408
11.7465	0.35
11.7877	0.584
11.8289	0.725
11.8701	0.756
11.9113	0.766
11.9524	0.77
11.9936	0.768
12.0348	0.747
12.076	0.713
12.1172	0.688
12.1584	0.688
12.1995	0.706
12.2407	0.701
12.2819	0.683
12.3231	0.669
12.3643	0.659
12.4055	0.632
12.4467	0.614
12.4878	0.594
12.529	0.568
12.5702	0.555
12.6114	0.541
12.6526	0.519
12.6938	0.505
12.7349	0.499
12.7761	0.495
12.8173	0.494
12.8585	0.495
12.8997	0.497
12.9409	0.507
12.982	0.517
13.0232	0.534
13.0644	0.541
13.1056	0.551
13.1468	0.56
13.188	0.57
13.2292	0.579
13.2703	0.587
13.3115	0.591
13.3527	0.596
13.3939	0.597
13.4351	0.601
13.4763	0.604
13.5174	0.608
13.5586	0.608
13.5998	0.608
13.641	0.608
13.6822	0.608
13.7234	0.608
13.7646	0.608
13.8057	0.606
13.8469	0.604
13.8881	0.601
13.9293	0.599
13.9705	0.596
14.0117	0.596
14.0528	0.592
14.094	0.586
14.1352	0.577
14.1764	0.57
14.2176	0.563
14.2588	0.553
14.2999	0.55
14.3411	0.55
14.3823	0.546
14.4235	0.533
14.4647	0.521
14.5059	0.516
14.5471	0.507
14.5882	0.5
14.6294	0.49
14.6706	0.48
14.7118	0.471
14.753	0.459
14.7942	0.453
14.8353	0.436
14.8765	0.425
14.9177	0.419
14.9589	0.415
15.0001	0.398
15.0413	0.381
15.0825	0.376
15.1236	0.374
15.1648	0.376
15.206	0.376
15.2472	0.378
15.2884	0.378
15.3296	0.378
15.3707	0.378
15.4119	0.378
15.4531	0.374
15.4943	0.371
15.5355	0.371
15.5767	0.373
15.6178	0.374
15.659	0.376
15.7002	0.378
15.7414	0.379
15.7826	0.383
15.8238	0.391
15.865	0.398
15.9061	0.405
15.9473	0.408
15.9885	0.408
