Infrared Spectrum: UREA, 1-[2-(6-HYDROXY-9H-PURIN-9-YL)ETHYL]-3-METHYL-
Formula: C9 H12 N6 02
CAS: 90674-44-5
State: SOLID (1 mg / 650 mg KBr DISC)
Class: COBLENTZ III
Instrument: PERKIN-ELMER 221 (GRATING)
Instrument parameters: GRATING FOR 4000-1428, FILTERS AT 2490, 980, NaCl PRISM FOR 1428-650 CM^-^1
Sampling: TRANSMISSION
Resolution: 4
Origin: SOUTHERN RESEARCH INSTITUTE
1/CM	TRANSMITTANCE
654.658	0.613
663.277	0.7269
671.896	0.7211
680.516	0.7284
689.135	0.776
697.754	0.783
706.373	0.8023
714.992	0.7152
723.611	0.7155
732.231	0.7455
740.85	0.7989
749.469	0.8618
758.088	0.884
766.707	0.8662
775.327	0.7769
783.946	0.8138
792.565	0.693
801.184	0.8731
809.803	0.7588
818.422	0.9116
827.042	0.932
835.661	0.929
844.28	0.9204
852.899	0.9104
861.518	0.8965
870.137	0.8723
878.757	0.8114
887.376	0.6997
895.995	0.687
904.614	0.7452
913.233	0.8842
921.853	0.9376
930.472	0.9449
939.091	0.9105
947.71	0.8369
956.329	0.8969
964.948	0.924
973.568	0.934
982.187	0.935
990.806	0.9366
999.425	0.9355
1008.04	0.9315
1016.66	0.9216
1025.28	0.9063
1033.9	0.8947
1042.52	0.8652
1051.14	0.8858
1059.76	0.8391
1068.38	0.9
1077	0.8901
1085.62	0.8809
1094.24	0.883
1102.86	0.8724
1111.47	0.8378
1120.09	0.8126
1128.71	0.7197
1137.33	0.7925
1145.95	0.7491
1154.57	0.6245
1163.19	0.477
1171.81	0.6764
1180.43	0.7293
1189.05	0.7279
1197.67	0.7244
1206.29	0.5084
1214.9	0.4182
1223.52	0.7104
1232.14	0.8406
1240.76	0.8408
1249.38	0.8198
1258	0.7732
1266.62	0.7059
1275.24	0.5692
1283.86	0.4855
1292.48	0.5197
1301.1	0.6564
1309.72	0.7153
1318.33	0.8018
1326.95	0.7852
1335.57	0.658
1344.19	0.7963
1352.81	0.803
1361.43	0.7391
1370.05	0.7661
1378.67	0.6782
1387.29	0.7632
1395.91	0.7479
1404.53	0.5201
1413.15	0.7167
1421.76	0.7605
1430.38	0.7332
1439	0.6449
1447.62	0.6571
1456.24	0.709
1464.86	0.617
1473.48	0.7346
1482.1	0.7406
1490.72	0.6787
1499.34	0.5817
1507.96	0.4715
1516.58	0.418
1525.2	0.5024
1533.81	0.5406
1542.43	0.3704
1551.05	0.4246
1559.67	0.4251
1568.29	0.3217
1576.91	0.3144
1585.53	0.4267
1594.15	0.6219
1602.77	0.701
1611.39	0.683
1620.01	0.6197
1628.63	0.4869
1637.24	0.3749
1645.86	0.4179
1654.48	0.4071
1663.1	0.3357
1671.72	0.1655
1680.34	0.114
1688.96	0.1443
1697.58	0.2344
1706.2	0.3422
1714.82	0.4642
1723.44	0.5825
1732.06	0.6632
1740.67	0.7257
1749.29	0.7592
1757.91	0.7916
1766.53	0.8192
1775.15	0.839
1783.77	0.8639
1792.39	0.8729
1801.01	0.8906
1809.63	0.9107
1818.25	0.9287
1826.87	0.9396
1835.49	0.941
1844.1	0.944
1852.72	0.9479
1861.34	0.952
1869.96	0.954
1878.58	0.956
1887.2	0.9508
1895.82	0.9409
1904.44	0.9361
1913.06	0.949
1921.68	0.9619
1930.3	0.9648
1938.92	0.967
1947.53	0.967
1956.15	0.968
1964.77	0.9693
1973.39	0.967
1982.01	0.965
1990.63	0.965
1999.25	0.963
2007.87	0.965
2016.49	0.965
2025.11	0.965
2033.73	0.963
2042.35	0.962
2050.96	0.9616
2059.58	0.957
2068.2	0.955
2076.82	0.952
2085.44	0.951
2094.06	0.951
2102.68	0.9496
2111.3	0.9482
2119.92	0.945
2128.54	0.945
2137.16	0.945
2145.78	0.946
2154.4	0.946
2163.01	0.9446
2171.63	0.941
2180.25	0.941
2188.87	0.941
2197.49	0.939
2206.11	0.937
2214.73	0.936
2223.35	0.936
2231.97	0.932
2240.59	0.929
2249.21	0.929
2257.83	0.927
2266.44	0.927
2275.06	0.927
2283.68	0.926
2292.3	0.9246
2300.92	0.922
2309.54	0.9196
2318.16	0.9146
2326.78	0.9086
2335.4	0.903
2344.02	0.901
2352.64	0.8986
2361.26	0.8922
2369.87	0.8954
2378.49	0.901
2387.11	0.904
2395.73	0.903
2404.35	0.8996
2412.97	0.898
2421.59	0.8956
2430.21	0.893
2438.83	0.8856
2447.45	0.881
2456.07	0.88
2464.69	0.8776
2473.3	0.875
2481.92	0.8736
2490.54	0.8676
2499.16	0.863
2507.78	0.862
2516.4	0.858
2525.02	0.8526
2533.64	0.8446
2542.26	0.84
2550.88	0.838
2559.5	0.8366
2568.12	0.833
2576.73	0.8201
2585.35	0.8052
2593.97	0.7992
2602.59	0.7988
2611.21	0.8016
2619.83	0.796
2628.45	0.792
2637.07	0.792
2645.69	0.7906
2654.31	0.7806
2662.93	0.7642
2671.55	0.7496
2680.16	0.746
2688.78	0.745
2697.4	0.7382
2706.02	0.7306
2714.64	0.7256
2723.26	0.7186
2731.88	0.706
2740.5	0.6964
2749.12	0.68
2757.74	0.678
2766.36	0.6718
2774.98	0.6411
2783.6	0.6182
2792.21	0.5929
2800.83	0.5654
2809.45	0.5566
2818.07	0.5441
2826.69	0.5186
2835.31	0.5106
2843.93	0.4996
2852.55	0.475
2861.17	0.4662
2869.79	0.467
2878.41	0.5073
2887.03	0.5206
2895.64	0.4822
2904.26	0.4944
2912.88	0.5203
2921.5	0.5632
2930.12	0.5782
2938.74	0.5748
2947.36	0.5328
2955.98	0.4746
2964.6	0.4872
2973.22	0.5041
2981.84	0.5608
2990.46	0.5722
2999.07	0.5455
3007.69	0.527
3016.31	0.526
3024.93	0.5244
3033.55	0.5354
3042.17	0.5241
3050.79	0.5162
3059.41	0.5447
3068.03	0.57
3076.65	0.526
3085.27	0.5364
3093.89	0.545
3102.5	0.5782
3111.12	0.5982
3119.74	0.6074
3128.36	0.6255
3136.98	0.639
3145.6	0.6444
3154.22	0.6512
3162.84	0.6684
3171.46	0.675
3180.08	0.68
3188.7	0.6762
3197.32	0.6686
3205.93	0.6625
3214.55	0.6508
3223.17	0.6226
3231.79	0.5992
3240.41	0.5712
3249.03	0.526
3257.65	0.4777
3266.27	0.4248
3274.89	0.3738
3283.51	0.3341
3292.13	0.3256
3300.75	0.3347
3309.37	0.3882
3317.98	0.4775
3326.6	0.5495
3335.22	0.6151
3343.84	0.6524
3352.46	0.6965
3361.08	0.7144
3369.7	0.7325
3378.32	0.7558
3386.94	0.7714
3395.56	0.7914
3404.18	0.801
3412.8	0.8074
3421.41	0.817
3430.03	0.819
3438.65	0.821
3447.27	0.8224
3455.89	0.823
3464.51	0.824
3473.13	0.824
3481.75	0.824
3490.37	0.826
3498.99	0.828
3507.61	0.831
3516.23	0.834
3524.84	0.837
3533.46	0.8374
3542.08	0.8474
3550.7	0.853
3559.32	0.857
3567.94	0.8584
3576.56	0.86
3585.18	0.862
3593.8	0.868
3602.42	0.87
3611.04	0.8694
3619.66	0.8734
3628.27	0.875
3636.89	0.875
3645.51	0.877
3654.13	0.875
3662.75	0.875
3671.37	0.874
3679.99	0.874
3688.61	0.873
3697.23	0.8734
3705.85	0.874
3714.47	0.872
3723.09	0.8676
3731.7	0.867
3740.32	0.864
3748.94	0.862
3757.56	0.863
3766.18	0.864
3774.8	0.863
3783.42	0.863
3792.04	0.862
3800.66	0.86
3809.28	0.8576
