Infrared Spectrum: 1-n-HEXASULFONYL-3-BROMO-2-PROPANONE
Formula: C9 H17 Br O3 S
CAS: 90676-00-9
State: SOLID (KBr PELLET)
Melting point: 108-109 C
Class: COBLENTZ
Instrument: Not specified, most likely a prism, grating, or hybrid spectrometer.
Sampling: TRANSMISSION
Resolution: 4
Origin: EASTMAN KODAK COMPANY, RESEARCH LABORATORIES, ROCHESTER, N.Y.
MICROMETERS	TRANSMITTANCE
2.007	0.42
2.04706	0.42
2.08711	0.423
2.12717	0.427
2.16723	0.428
2.20728	0.428
2.24734	0.427
2.2874	0.43
2.32745	0.435
2.36751	0.441
2.40757	0.451
2.44762	0.454
2.48768	0.459
2.52773	0.469
2.56779	0.474
2.60785	0.484
2.6479	0.49
2.68796	0.495
2.72802	0.499
2.76807	0.49
2.80813	0.458
2.84819	0.44
2.88824	0.423
2.9283	0.427
2.96836	0.445
3.00841	0.471
3.04847	0.495
3.08853	0.504
3.12858	0.513
3.16864	0.52
3.2087	0.515
3.24875	0.505
3.28881	0.492
3.32886	0.363
3.36892	0.199
3.40898	0.219
3.44903	0.42
3.48909	0.348
3.52915	0.531
3.5692	0.574
3.60926	0.595
3.64932	0.602
3.68937	0.618
3.72943	0.625
3.76949	0.628
3.80954	0.635
3.8496	0.643
3.88966	0.649
3.92971	0.656
3.96977	0.662
4.00983	0.672
4.04988	0.674
4.08994	0.675
4.12999	0.679
4.17005	0.69
4.21011	0.687
4.25016	0.687
4.29022	0.695
4.33028	0.71
4.37033	0.708
4.41039	0.718
4.45045	0.721
4.4905	0.725
4.53056	0.726
4.57062	0.726
4.61067	0.725
4.65073	0.725
4.69079	0.726
4.73084	0.733
4.7709	0.734
4.81096	0.734
4.85101	0.736
4.89107	0.739
4.93112	0.744
4.97118	0.751
5.01124	0.756
5.05129	0.759
5.09135	0.762
5.13141	0.765
5.17146	0.769
5.21152	0.774
5.25158	0.779
5.29163	0.782
5.33169	0.785
5.37175	0.79
5.4118	0.793
5.45186	0.8
5.49192	0.795
5.53197	0.785
5.57203	0.788
5.61209	0.78
5.65214	0.725
5.6922	0.494
5.73225	0.17
5.77231	0.572
5.81237	0.666
5.85242	0.747
5.89248	0.772
5.93254	0.795
5.97259	0.798
6.01265	0.798
6.05271	0.783
6.09276	0.777
6.13282	0.78
6.17288	0.785
6.21293	0.8
6.25299	0.81
6.29305	0.831
6.3331	0.829
6.37316	0.834
6.41322	0.839
6.45327	0.842
6.49333	0.834
6.53338	0.851
6.57344	0.839
6.6135	0.836
6.65355	0.836
6.69361	0.819
6.73367	0.819
6.77372	0.762
6.81378	0.639
6.85384	0.643
6.89389	0.705
6.93395	0.779
6.97401	0.787
7.01406	0.795
7.05412	0.736
7.09418	0.759
7.13423	0.746
7.17429	0.581
7.21435	0.579
7.2544	0.63
7.29446	0.423
7.33451	0.594
7.37457	0.675
7.41463	0.744
7.45468	0.761
7.49474	0.723
7.5348	0.617
7.57485	0.288
7.61491	0.212
7.65497	0.152
7.69502	0.222
7.73508	0.212
7.77514	0.364
7.81519	0.198
7.85525	0.314
7.89531	0.399
7.93536	0.389
7.97542	0.571
8.01548	0.677
8.05553	0.631
8.09559	0.731
8.13564	0.765
8.1757	0.756
8.21576	0.777
8.25581	0.692
8.29587	0.549
8.33593	0.574
8.37598	0.772
8.41604	0.824
8.4561	0.833
8.49615	0.829
8.53621	0.829
8.57627	0.826
8.61632	0.806
8.65638	0.772
8.69644	0.675
8.73649	0.436
8.77655	0.055
8.81661	0.103
8.85666	0.435
8.89672	0.602
8.93678	0.677
8.97683	0.541
9.01689	0.63
9.05694	0.749
9.097	0.819
9.13706	0.846
9.17711	0.849
9.21717	0.855
9.25723	0.869
9.29728	0.87
9.33734	0.867
9.3774	0.865
9.41745	0.86
9.45751	0.854
9.49757	0.846
9.53762	0.823
9.57768	0.775
9.61774	0.666
9.65779	0.548
9.69785	0.648
9.73791	0.759
9.77796	0.788
9.81802	0.808
9.85807	0.846
9.89813	0.867
9.93819	0.885
9.97824	0.891
10.0183	0.9
10.0584	0.905
10.0984	0.906
10.1385	0.909
10.1785	0.914
10.2186	0.916
10.2586	0.916
10.2987	0.919
10.3388	0.923
10.3788	0.921
10.4189	0.923
10.4589	0.932
10.499	0.931
10.539	0.936
10.5791	0.939
10.6191	0.941
10.6592	0.944
10.6993	0.945
10.7393	0.949
10.7794	0.95
10.8194	0.931
10.8595	0.875
10.8995	0.762
10.9396	0.839
10.9797	0.903
11.0197	0.924
11.0598	0.932
11.0998	0.934
11.1399	0.924
11.1799	0.891
11.22	0.89
11.2601	0.924
11.3001	0.934
11.3402	0.942
11.3802	0.932
11.4203	0.934
11.4603	0.937
11.5004	0.923
11.5404	0.869
11.5805	0.829
11.6206	0.855
11.6606	0.903
11.7007	0.924
11.7407	0.947
11.7808	0.955
11.8208	0.965
11.8609	0.967
11.901	0.968
11.941	0.97
11.9811	0.973
12.0211	0.972
12.0612	0.967
12.1012	0.967
12.1413	0.96
12.1814	0.959
12.2214	0.959
12.2615	0.954
12.3015	0.952
12.3416	0.95
12.3816	0.941
12.4217	0.936
12.4617	0.934
12.5018	0.926
12.5419	0.909
12.5819	0.873
12.622	0.823
12.662	0.754
12.7021	0.705
12.7421	0.729
12.7822	0.8
12.8223	0.836
12.8623	0.86
12.9024	0.865
12.9424	0.855
12.9825	0.839
13.0225	0.811
13.0626	0.775
13.1027	0.767
13.1427	0.772
13.1828	0.78
13.2228	0.793
13.2629	0.821
13.3029	0.839
13.343	0.857
13.383	0.873
13.4231	0.882
13.4632	0.882
13.5032	0.887
13.5433	0.89
13.5833	0.895
13.6234	0.895
13.6634	0.883
13.7035	0.867
13.7436	0.834
13.7836	0.803
13.8237	0.836
13.8637	0.875
13.9038	0.905
13.9438	0.921
13.9839	0.923
14.024	0.927
14.064	0.927
14.1041	0.923
14.1441	0.923
14.1842	0.916
14.2242	0.908
14.2643	0.891
14.3043	0.883
14.3444	0.877
14.3845	0.877
14.4245	0.875
14.4646	0.87
14.5046	0.872
14.5447	0.869
14.5847	0.872
14.6248	0.873
14.6649	0.873
14.7049	0.872
14.745	0.867
14.785	0.857
14.8251	0.844
14.8651	0.826
14.9052	0.798
14.9453	0.71
14.9853	0.698
15.0254	0.756
15.0654	0.749
15.1055	0.731
15.1455	0.715
15.1856	0.684
15.2256	0.666
15.2657	0.651
15.3058	0.644
15.3458	0.651
15.3859	0.657
15.4259	0.661
15.466	0.666
15.506	0.669
15.5461	0.671
15.5862	0.674
15.6262	0.675
15.6663	0.679
15.7063	0.68
15.7464	0.682
15.7864	0.682
15.8265	0.684
15.8666	0.682
15.9066	0.684
15.9467	0.684
15.9867	0.684
