Infrared Spectrum: Thiadiazolo[3,4-d]pyrimidine-5-thiol, 1,2,5-, 7-amino-
Formula: C4 H3 N5 S2
CAS: 90773-36-7
State: SOLID (0.9 mg / 650 mg KBr DISC)
Class: COBLENTZ III
Instrument: PERKIN-ELMER 21 (GRATING)
Instrument parameters: FILTER CHANGE ABOUT 1025 CM^-^1
Sampling: TRANSMISSION
Resolution: 2
Origin: SOUTHERN RESEARCH INSTITUTE
1/CM	TRANSMITTANCE
603	0.4533
612.026	0.4552
621.053	0.4561
630.079	0.4611
639.106	0.5049
648.132	0.5363
657.159	0.5121
666.185	0.4759
675.212	0.4369
684.238	0.4312
693.265	0.4392
702.291	0.4755
711.318	0.4776
720.344	0.4722
729.371	0.4581
738.397	0.454
747.424	0.4361
756.45	0.4346
765.477	0.4753
774.503	0.562
783.53	0.5827
792.556	0.5783
801.583	0.539
810.609	0.416
819.636	0.2984
828.662	0.3411
837.689	0.3031
846.715	0.4695
855.742	0.4226
864.768	0.6469
873.795	0.6985
882.821	0.7091
891.848	0.712
900.874	0.7127
909.901	0.712
918.927	0.7077
927.954	0.6967
936.98	0.6783
946.007	0.6408
955.033	0.5607
964.06	0.4948
973.086	0.515
982.113	0.6917
991.139	0.6905
1000.17	0.6831
1009.19	0.6744
1018.22	0.6598
1027.25	0.6771
1036.27	0.6559
1045.3	0.596
1054.32	0.5152
1063.35	0.507
1072.38	0.6057
1081.4	0.6614
1090.43	0.6604
1099.46	0.6508
1108.48	0.6298
1117.51	0.6078
1126.54	0.5799
1135.56	0.5211
1144.59	0.4275
1153.62	0.3101
1162.64	0.2149
1171.67	0.1122
1180.7	0.1026
1189.72	0.0808
1198.75	0.1666
1207.78	0.4624
1216.8	0.5806
1225.83	0.5856
1234.85	0.5794
1243.88	0.5567
1252.91	0.5193
1261.93	0.4881
1270.96	0.4544
1279.99	0.4133
1289.01	0.3352
1298.04	0.2615
1307.07	0.1106
1316.09	0.1262
1325.12	0.3165
1334.15	0.2975
1343.17	0.2067
1352.2	0.2514
1361.23	0.5161
1370.25	0.5602
1379.28	0.5123
1388.3	0.4522
1397.33	0.4143
1406.36	0.2867
1415.38	0.0522
1424.41	0.0775
1433.44	0.2767
1442.46	0.4682
1451.49	0.4593
1460.52	0.4507
1469.54	0.4581
1478.57	0.4997
1487.6	0.5123
1496.62	0.508
1505.65	0.4903
1514.68	0.4703
1523.7	0.4004
1532.73	0.3296
1541.76	0.2062
1550.78	0.1662
1559.81	0.1529
1568.83	0.1144
1577.86	0.0526
1586.89	0.0347
1595.91	0.0369
1604.94	0.212
1613.97	0.3691
1622.99	0.3364
1632.02	0.2659
1641.05	0.1916
1650.07	0.1032
1659.1	0.0949
1668.13	0.1459
1677.15	0.2889
1686.18	0.6527
1695.21	0.6995
1704.23	0.7199
1713.26	0.7549
1722.29	0.7652
1731.31	0.7758
1740.34	0.7871
1749.36	0.7891
1758.39	0.7885
1767.42	0.7866
1776.44	0.7853
1785.47	0.7829
1794.5	0.7811
1803.52	0.7804
1812.55	0.779
1821.58	0.7766
1830.6	0.7739
1839.63	0.7703
1848.66	0.7635
1857.68	0.7551
1866.71	0.7522
1875.74	0.7497
1884.76	0.7474
1893.79	0.744
1902.82	0.7405
1911.84	0.7392
1920.87	0.7383
1929.89	0.7376
1938.92	0.7366
1947.95	0.7338
1956.97	0.7314
1966	0.7305
1975.03	0.7302
1984.05	0.7313
1993.08	0.7326
2002.11	0.732
2011.13	0.7279
2020.16	0.7249
2029.19	0.7221
2038.21	0.7193
2047.24	0.7173
2056.27	0.7155
2065.29	0.7137
2074.32	0.7118
2083.35	0.709
2092.37	0.7058
2101.4	0.701
2110.42	0.695
2119.45	0.692
2128.48	0.6896
2137.5	0.6888
2146.53	0.6881
2155.56	0.6885
2164.58	0.6895
2173.61	0.6908
2182.64	0.6924
2191.66	0.6938
2200.69	0.6943
2209.72	0.6938
2218.74	0.6894
2227.77	0.6841
2236.8	0.6786
2245.82	0.6762
2254.85	0.6746
2263.87	0.6745
2272.9	0.6752
2281.93	0.6761
2290.95	0.6769
2299.98	0.6772
2309.01	0.6774
2318.03	0.6777
2327.06	0.6775
2336.09	0.6753
2345.11	0.6731
2354.14	0.6711
2363.17	0.6693
2372.19	0.6669
2381.22	0.6612
2390.25	0.6535
2399.27	0.6478
2408.3	0.6438
2417.33	0.6407
2426.35	0.6387
2435.38	0.6372
2444.4	0.6365
2453.43	0.6352
2462.46	0.6321
2471.48	0.6273
2480.51	0.6221
2489.54	0.6166
2498.56	0.611
2507.59	0.6058
2516.62	0.6007
2525.64	0.5964
2534.67	0.5945
2543.7	0.5943
2552.72	0.5919
2561.75	0.5876
2570.78	0.5824
2579.8	0.5772
2588.83	0.5723
2597.86	0.5685
2606.88	0.5648
2615.91	0.562
2624.93	0.5612
2633.96	0.5604
2642.99	0.5587
2652.01	0.5542
2661.04	0.5477
2670.07	0.5413
2679.09	0.5325
2688.12	0.5227
2697.15	0.5145
2706.17	0.508
2715.2	0.5004
2724.23	0.4918
2733.25	0.483
2742.28	0.4777
2751.31	0.4728
2760.33	0.4677
2769.36	0.4624
2778.39	0.4572
2787.41	0.452
2796.44	0.4463
2805.46	0.4396
2814.49	0.4299
2823.52	0.4134
2832.54	0.3935
2841.57	0.376
2850.6	0.3624
2859.62	0.3515
2868.65	0.3419
2877.68	0.3319
2886.7	0.3211
2895.73	0.3059
2904.76	0.2896
2913.78	0.2765
2922.81	0.2662
2931.84	0.2566
2940.86	0.2426
2949.89	0.2325
2958.91	0.2245
2967.94	0.2154
2976.97	0.204
2985.99	0.1897
2995.02	0.1769
3004.05	0.1694
3013.07	0.167
3022.1	0.1653
3031.13	0.1659
3040.15	0.1685
3049.18	0.1718
3058.21	0.1778
3067.23	0.1845
3076.26	0.1889
3085.29	0.1868
3094.31	0.1829
3103.34	0.1809
3112.37	0.1792
3121.39	0.1772
3130.42	0.1759
3139.44	0.1757
3148.47	0.1785
3157.5	0.185
3166.52	0.1934
3175.55	0.1954
3184.58	0.1952
3193.6	0.1948
3202.63	0.1954
3211.66	0.2064
3220.68	0.2258
3229.71	0.2557
3238.74	0.2687
3247.76	0.2702
3256.79	0.2632
3265.82	0.2516
3274.84	0.2366
3283.87	0.2188
3292.9	0.201
3301.92	0.1915
3310.95	0.1875
3319.97	0.1864
3329	0.1888
3338.03	0.1963
3347.05	0.2109
3356.08	0.2311
3365.11	0.2666
3374.13	0.304
3383.16	0.3298
3392.19	0.36
3401.21	0.3867
3410.24	0.3985
3419.27	0.4054
3428.29	0.4109
3437.32	0.4163
3446.35	0.4213
3455.37	0.4256
3464.4	0.4299
3473.43	0.434
3482.45	0.4381
3491.48	0.4422
3500.5	0.4467
3509.53	0.4518
3518.56	0.4569
3527.58	0.462
3536.61	0.4661
3545.64	0.4702
3554.66	0.4745
3563.69	0.4827
3572.72	0.4964
3581.74	0.5185
3590.77	0.5354
3599.8	0.5435
3608.82	0.5522
3617.85	0.5604
3626.88	0.5655
3635.9	0.5706
3644.93	0.5756
3653.95	0.5795
3662.98	0.5824
3672.01	0.5847
3681.03	0.5861
3690.06	0.586
3699.09	0.586
3708.11	0.5863
3717.14	0.5869
3726.17	0.5874
3735.19	0.5879
3744.22	0.5879
3753.25	0.5875
3762.27	0.5871
3771.3	0.5867
3780.33	0.5859
3789.35	0.5851
3798.38	0.5844
3807.41	0.5835
3816.43	0.5826
3825.46	0.5815
3834.48	0.5794
3843.51	0.5774
3852.54	0.5746
3861.56	0.574
3870.59	0.5739
3879.62	0.573
3888.64	0.5721
3897.67	0.5712
3906.7	0.5697
3915.72	0.5681
3924.75	0.5664
3933.78	0.5648
3942.8	0.5634
3951.83	0.5623
3960.86	0.5619
3969.88	0.5615
3978.91	0.5629
3987.94	0.5643
3996.96	0.5664
4005.99	0.5636
