Infrared Spectrum: DIETHYLENE GLYCOL BIS-BROMOACETATE
Formula: C8 H12 Br2 O5
CAS: 90783-54-3
State: SOLUTION (10% IN CCl4 FOR 3800-1300, 10% IN CS2 FOR 1300-650, AND 10% IN CCl4 FOR 650-250 CM^-^1) VERSUS SOLVENT
Class: COBLENTZ
Instrument: Not specified, most likely a prism, grating, or hybrid spectrometer.
Sampling: TRANSMISSION
Path length: 0.010, 0.010, AND 0.010 CM (CsBr CELL)
Resolution: 4
Origin: DOW CHEMICAL COMPANY
1/CM	TRANSMITTANCE
448.557	0.819
458.031	0.824
467.506	0.832
476.98	0.834
486.455	0.832
495.929	0.83
505.404	0.835
514.878	0.837
524.353	0.829
533.827	0.819
543.301	0.752
552.776	0.66
562.25	0.702
571.725	0.77
581.199	0.837
590.674	0.869
600.148	0.874
609.623	0.876
619.097	0.874
628.572	0.868
638.046	0.843
647.52	0.804
656.995	0.7311
666.469	0.656
675.944	0.658
685.418	0.695
694.893	0.741
704.367	0.731
713.842	0.71
723.316	0.744
732.79	0.793
742.265	0.817
751.739	0.829
761.214	0.83
770.688	0.829
780.163	0.827
789.637	0.817
799.112	0.811
808.586	0.793
818.06	0.782
827.535	0.772
837.009	0.731
846.484	0.658
855.958	0.583
865.433	0.601
874.907	0.655
884.382	0.665
893.856	0.682
903.33	0.695
912.805	0.665
922.279	0.684
931.754	0.684
941.228	0.673
950.703	0.653
960.177	0.591
969.652	0.556
979.126	0.6449
988.601	0.736
998.075	0.712
1007.55	0.656
1017.02	0.621
1026.5	0.5591
1035.97	0.3961
1045.45	0.36
1054.92	0.494
1064.4	0.645
1073.87	0.643
1083.35	0.559
1092.82	0.4351
1102.29	0.2031
1111.77	0.065
1121.24	0.107
1130.72	0.084
1140.19	0.066
1149.67	0.102
1159.14	0.143
1168.62	0.149
1178.09	0.2659
1187.56	0.4339
1197.04	0.482
1206.51	0.434
1215.99	0.439
1225.46	0.5169
1234.94	0.57
1244.41	0.474
1253.89	0.325
1263.36	0.1172
1272.83	0.024
1282.31	0.027
1291.78	0.053
1301.26	0.193
1310.73	0.4208
1320.21	0.603
1329.68	0.66
1339.16	0.655
1348.63	0.705
1358.1	0.7041
1367.58	0.6679
1377.05	0.665
1386.53	0.738
1396	0.663
1405.48	0.6351
1414.95	0.557
1424.43	0.474
1433.9	0.63
1443.37	0.577
1452.85	0.5521
1462.32	0.6369
1471.8	0.697
1481.27	0.749
1490.75	0.746
1500.22	0.738
1509.7	0.694
1519.17	0.653
1528.64	0.611
1538.12	0.541
1547.59	0.4561
1557.07	0.455
1566.54	0.52
1576.02	0.595
1585.49	0.621
1594.97	0.6649
1604.44	0.743
1613.91	0.804
1623.39	0.834
1632.86	0.853
1642.34	0.874
1651.81	0.874
1661.29	0.85
1670.76	0.834
1680.24	0.814
1689.71	0.782
1699.18	0.739
1708.66	0.682
1718.13	0.624
1727.61	0.448
1737.08	0.0634
1746.56	0.021
1756.03	0.029
1765.51	0.042
1774.98	0.134
1784.45	0.4708
1793.93	0.682
1803.4	0.744
1812.88	0.775
1822.35	0.796
1831.83	0.806
1841.3	0.819
1850.78	0.824
1860.25	0.827
1869.72	0.83
1879.2	0.834
1888.67	0.837
1898.15	0.843
1907.62	0.842
1917.1	0.842
1926.57	0.842
1936.05	0.84
1945.52	0.837
1954.99	0.837
1964.47	0.843
1973.94	0.842
1983.42	0.843
1992.89	0.847
2002.37	0.853
2011.84	0.856
2021.32	0.8599
2030.79	0.863
2040.26	0.863
2049.74	0.863
2059.21	0.865
2068.69	0.863
2078.16	0.865
2087.64	0.865
2097.11	0.865
2106.59	0.865
2116.06	0.866
2125.53	0.8659
2135.01	0.866
2144.48	0.8689
2153.96	0.869
2163.43	0.8663
2172.91	0.866
2182.38	0.868
2191.86	0.866
2201.33	0.8652
2210.8	0.866
2220.28	0.8652
2229.75	0.866
2239.23	0.863
2248.7	0.8615
2258.18	0.86
2267.65	0.856
2277.13	0.853
2286.6	0.8473
2296.07	0.848
2305.55	0.852
2315.02	0.852
2324.5	0.853
2333.97	0.856
2343.45	0.8573
2352.92	0.86
2362.4	0.861
2371.87	0.863
2381.34	0.863
2390.82	0.8643
2400.29	0.8672
2409.77	0.868
2419.24	0.868
2428.72	0.868
2438.19	0.871
2447.67	0.873
2457.14	0.873
2466.61	0.873
2476.09	0.873
2485.56	0.873
2495.04	0.873
2504.51	0.874
2513.99	0.872
2523.46	0.869
2532.94	0.868
2542.41	0.869
2551.88	0.871
2561.36	0.873
2570.83	0.874
2580.31	0.874
2589.78	0.874
2599.26	0.874
2608.73	0.8748
2618.21	0.8736
2627.68	0.873
2637.15	0.873
2646.63	0.873
2656.1	0.873
2665.58	0.873
2675.05	0.873
2684.53	0.873
2694	0.869
2703.48	0.8643
2712.95	0.8607
2722.42	0.858
2731.9	0.8544
2741.37	0.8514
2750.85	0.848
2760.32	0.8486
2769.8	0.8505
2779.27	0.8495
2788.75	0.8412
2798.22	0.834
2807.69	0.8335
2817.17	0.822
2826.64	0.7713
2836.12	0.7852
2845.59	0.7886
2855.07	0.7318
2864.54	0.6501
2874.02	0.5952
2883.49	0.5828
2892.96	0.5833
2902.44	0.6041
2911.91	0.6396
2921.39	0.6755
2930.86	0.707
2940.34	0.6982
2949.81	0.6507
2959.29	0.5068
2968.76	0.5277
2978.23	0.6282
2987.71	0.6864
2997.18	0.7315
3006.66	0.7802
3016.13	0.8191
3025.61	0.834
3035.08	0.84
3044.56	0.845
3054.03	0.85
3063.5	0.858
3072.98	0.871
3082.45	0.878
3091.93	0.882
3101.4	0.887
3110.88	0.8889
3120.35	0.891
3129.83	0.894
3139.3	0.895
3148.77	0.897
3158.25	0.899
3167.72	0.899
3177.2	0.9
3186.67	0.9
3196.15	0.9
3205.62	0.902
3215.1	0.904
3224.57	0.905
3234.04	0.905
3243.52	0.907
3252.99	0.907
3262.47	0.907
3271.94	0.91
3281.42	0.912
3290.89	0.913
3300.37	0.915
3309.84	0.9165
3319.31	0.915
3328.79	0.913
3338.26	0.912
3347.74	0.912
3357.21	0.913
3366.69	0.915
3376.16	0.917
3385.64	0.917
3395.11	0.917
3404.58	0.9136
3414.06	0.912
3423.53	0.908
3433.01	0.9043
3442.48	0.9007
3451.96	0.8931
3461.43	0.8829
3470.91	0.878
3480.38	0.8816
3489.85	0.884
3499.33	0.886
3508.8	0.887
3518.28	0.889
3527.75	0.891
3537.23	0.894
3546.7	0.894
3556.18	0.894
3565.65	0.894
3575.12	0.892
3584.6	0.892
3594.07	0.8915
3603.55	0.887
3613.02	0.8865
3622.5	0.886
3631.97	0.8851
3641.45	0.884
3650.92	0.8831
3660.39	0.881
3669.87	0.879
3679.34	0.882
3688.82	0.8848
3698.29	0.886
3707.77	0.884
3717.24	0.884
3726.72	0.886
3736.19	0.886
3745.66	0.886
3755.14	0.886
3764.61	0.886
3774.09	0.886
3783.56	0.887
3793.04	0.889
