Infrared Spectrum: UREA, [2-(3,4-DICHLOROPHENYL)CYCLOPROPYL]-
Formula: C10 H10 Cl2 N2 O
CAS: 90793-41-2
State: SOLID (OIL MULL)
Class: COBLENTZ III
Instrument: PERKIN-ELMER 21 (GRATING)
Instrument parameters: NaCl PRISM
Sampling: TRANSMISSION
Resolution: 2
Origin: SMITH KLINE & FRENCH LABS.
MICROMETERS	TRANSMITTANCE
2.005	0.626
2.03913	0.626
2.07326	0.642
2.1074	0.645
2.14153	0.662
2.17566	0.663
2.20979	0.67
2.24393	0.671
2.27806	0.669
2.31219	0.651
2.34632	0.648
2.38046	0.662
2.41459	0.668
2.44872	0.675
2.48285	0.686
2.51699	0.714
2.55112	0.71
2.58525	0.728
2.61938	0.731
2.65352	0.736
2.68765	0.746
2.72178	0.751
2.75591	0.758
2.79005	0.762
2.82418	0.762
2.85831	0.754
2.89244	0.628
2.92658	0.39
2.96071	0.368
2.99484	0.392
3.02897	0.265
3.0631	0.281
3.09724	0.382
3.13137	0.43
3.1655	0.445
3.19963	0.513
3.23377	0.551
3.2679	0.548
3.30203	0.534
3.33616	0.521
3.3703	0.385
3.40443	0.1
3.43856	0.057
3.47269	0.057
3.50683	0.067
3.54096	0.073
3.57509	0.415
3.60922	0.613
3.64336	0.687
3.67749	0.696
3.71162	0.691
3.74575	0.706
3.77989	0.712
3.81402	0.731
3.84815	0.741
3.88228	0.751
3.91641	0.767
3.95055	0.77
3.98468	0.778
4.01881	0.789
4.05294	0.792
4.08708	0.793
4.12121	0.795
4.15534	0.792
4.18947	0.798
4.22361	0.795
4.25774	0.795
4.29187	0.798
4.326	0.802
4.36014	0.806
4.39427	0.814
4.4284	0.82
4.46253	0.824
4.49667	0.828
4.5308	0.831
4.56493	0.83
4.59906	0.837
4.6332	0.828
4.66733	0.836
4.70146	0.835
4.73559	0.835
4.76973	0.841
4.80386	0.836
4.83799	0.836
4.87212	0.841
4.90625	0.841
4.94039	0.841
4.97452	0.843
5.00865	0.843
5.04278	0.842
5.07692	0.847
5.11105	0.85
5.14518	0.854
5.17931	0.86
5.21345	0.856
5.24758	0.857
5.28171	0.84
5.31584	0.852
5.34998	0.857
5.38411	0.871
5.41824	0.862
5.45237	0.871
5.48651	0.87
5.52064	0.858
5.55477	0.856
5.5889	0.837
5.62304	0.826
5.65717	0.803
5.6913	0.797
5.72543	0.806
5.75957	0.825
5.7937	0.814
5.82783	0.813
5.86196	0.785
5.89609	0.773
5.93023	0.7
5.96436	0.562
5.99849	0.337
6.03262	0.1
6.06676	0.078
6.10089	0.198
6.13502	0.323
6.16915	0.317
6.20329	0.271
6.23742	0.212
6.27155	0.118
6.30568	0.245
6.33982	0.321
6.37395	0.315
6.40808	0.203
6.44221	0.164
6.47635	0.253
6.51048	0.264
6.54461	0.468
6.57874	0.521
6.61288	0.623
6.64701	0.635
6.68114	0.647
6.71527	0.596
6.7494	0.37
6.78354	0.198
6.81767	0.195
6.8518	0.16
6.88593	0.121
6.92007	0.14
6.9542	0.286
6.98833	0.46
7.02246	0.598
7.0566	0.619
7.09073	0.568
7.12486	0.525
7.15899	0.584
7.19313	0.543
7.22726	0.39
7.26139	0.252
7.29552	0.243
7.32966	0.345
7.36379	0.385
7.39792	0.33
7.43205	0.254
7.46619	0.268
7.50032	0.414
7.53445	0.508
7.56858	0.508
7.60272	0.346
7.63685	0.473
7.67098	0.558
7.70511	0.595
7.73924	0.625
7.77338	0.642
7.80751	0.651
7.84164	0.647
7.87577	0.63
7.90991	0.647
7.94404	0.65
7.97817	0.654
8.0123	0.671
8.04644	0.681
8.08057	0.691
8.1147	0.685
8.14883	0.674
8.18297	0.674
8.2171	0.674
8.25123	0.629
8.28536	0.632
8.3195	0.691
8.35363	0.698
8.38776	0.709
8.42189	0.707
8.45603	0.686
8.49016	0.651
8.52429	0.557
8.55842	0.548
8.59256	0.609
8.62669	0.637
8.66082	0.62
8.69495	0.618
8.72908	0.613
8.76322	0.596
8.79735	0.547
8.83148	0.457
8.86561	0.359
8.89975	0.5
8.93388	0.557
8.96801	0.581
9.00214	0.589
9.03628	0.592
9.07041	0.618
9.10454	0.621
9.13867	0.602
9.17281	0.659
9.20694	0.68
9.24107	0.696
9.2752	0.691
9.30934	0.667
9.34347	0.625
9.3776	0.519
9.41173	0.528
9.44587	0.642
9.48	0.658
9.51413	0.634
9.54826	0.614
9.58239	0.663
9.61653	0.68
9.65066	0.686
9.68479	0.676
9.71892	0.631
9.75306	0.568
9.78719	0.485
9.82132	0.637
9.85545	0.698
9.88959	0.737
9.92372	0.739
9.95785	0.741
9.99198	0.747
10.0261	0.752
10.0602	0.752
10.0944	0.752
10.1285	0.751
10.1626	0.754
10.1968	0.754
10.2309	0.748
10.265	0.734
10.2992	0.704
10.3333	0.682
10.3674	0.676
10.4016	0.686
10.4357	0.68
10.4698	0.593
10.504	0.55
10.5381	0.598
10.5722	0.652
10.6064	0.664
10.6405	0.632
10.6746	0.664
10.7088	0.714
10.7429	0.731
10.777	0.745
10.8112	0.754
10.8453	0.759
10.8794	0.76
10.9136	0.765
10.9477	0.765
10.9818	0.765
11.016	0.764
11.0501	0.764
11.0842	0.743
11.1184	0.668
11.1525	0.579
11.1866	0.575
11.2208	0.614
11.2549	0.691
11.289	0.75
11.3231	0.769
11.3573	0.781
11.3914	0.791
11.4255	0.792
11.4597	0.792
11.4938	0.792
11.5279	0.786
11.5621	0.75
11.5962	0.693
11.6303	0.665
11.6645	0.753
11.6986	0.778
11.7327	0.793
11.7669	0.797
11.801	0.798
11.8351	0.797
11.8693	0.792
11.9034	0.774
11.9375	0.708
11.9717	0.674
12.0058	0.718
12.0399	0.709
12.0741	0.713
12.1082	0.767
12.1423	0.771
12.1765	0.753
12.2106	0.734
12.2447	0.753
12.2789	0.763
12.313	0.751
12.3471	0.689
12.3813	0.597
12.4154	0.604
12.4495	0.659
12.4836	0.675
12.5178	0.673
12.5519	0.72
12.586	0.775
12.6202	0.792
12.6543	0.795
12.6884	0.798
12.7226	0.789
12.7567	0.779
12.7908	0.773
12.825	0.773
12.8591	0.767
12.8932	0.754
12.9274	0.769
12.9615	0.778
12.9956	0.782
13.0298	0.785
13.0639	0.784
13.098	0.787
13.1322	0.79
13.1663	0.785
13.2004	0.789
13.2346	0.784
13.2687	0.786
13.3028	0.786
13.337	0.785
13.3711	0.779
13.4052	0.773
13.4394	0.769
13.4735	0.765
13.5076	0.756
13.5418	0.753
13.5759	0.745
13.61	0.734
13.6442	0.728
13.6783	0.726
13.7124	0.725
13.7465	0.723
13.7807	0.717
13.8148	0.712
13.8489	0.695
13.8831	0.69
13.9172	0.684
13.9513	0.682
13.9855	0.684
14.0196	0.681
14.0537	0.679
14.0879	0.679
14.122	0.667
14.1561	0.648
14.1903	0.625
14.2244	0.61
14.2585	0.624
14.2927	0.646
14.3268	0.65
14.3609	0.65
14.3951	0.65
14.4292	0.641
14.4633	0.64
14.4975	0.63
14.5316	0.62
14.5657	0.575
14.5999	0.546
14.634	0.517
14.6681	0.513
