Infrared Spectrum: O-NITRO CARBANILIC ACID, n-PROPYL ESTER
Formula: C10 H12 N2 O4
CAS: 90870-22-7
Class: COBLENTZ
Instrument: Not specified, most likely a grating spectrometer.
Sampling: TRANSMISSION
Path length: CAPILLARY
Resolution: 4
Origin: CITRUS EXPERIMENT STATION, UNIVERSITY OF FLORIDA (G. EDWARDS)
MICROMETERS	TRANSMITTANCE
2.033	0.917
2.06616	0.917
2.09932	0.916
2.13248	0.913
2.16564	0.912
2.19879	0.911
2.23195	0.909
2.26511	0.911
2.29827	0.911
2.33143	0.911
2.36459	0.911
2.39775	0.909
2.43091	0.908
2.46407	0.909
2.49722	0.913
2.53038	0.915
2.56354	0.917
2.5967	0.919
2.62986	0.915
2.66302	0.911
2.69618	0.88
2.72934	0.871
2.7625	0.85
2.79566	0.846
2.82881	0.831
2.86197	0.818
2.89513	0.777
2.92829	0.664
2.96145	0.318
2.99461	0.566
3.02777	0.785
3.06093	0.832
3.09409	0.839
3.12724	0.85
3.1604	0.836
3.19356	0.795
3.22672	0.795
3.25988	0.812
3.29304	0.835
3.3262	0.745
3.35936	0.399
3.39252	0.545
3.42567	0.653
3.45883	0.632
3.49199	0.775
3.52515	0.84
3.55831	0.859
3.59147	0.863
3.62463	0.868
3.65779	0.883
3.69095	0.892
3.7241	0.891
3.75726	0.889
3.79042	0.885
3.82358	0.885
3.85674	0.888
3.8899	0.901
3.92306	0.903
3.95622	0.904
3.98938	0.899
4.02254	0.895
4.05569	0.891
4.08885	0.888
4.12201	0.877
4.15517	0.875
4.18833	0.889
4.22149	0.872
4.25465	0.885
4.28781	0.896
4.32097	0.896
4.35412	0.896
4.38728	0.899
4.42044	0.9
4.4536	0.884
4.48676	0.876
4.51992	0.887
4.55308	0.889
4.58624	0.892
4.6194	0.892
4.65255	0.893
4.68571	0.895
4.71887	0.897
4.75203	0.903
4.78519	0.905
4.81835	0.905
4.85151	0.904
4.88467	0.904
4.91783	0.903
4.95098	0.897
4.98414	0.892
5.0173	0.884
5.05046	0.877
5.08362	0.875
5.11678	0.87
5.14994	0.87
5.1831	0.876
5.21626	0.879
5.24941	0.889
5.28257	0.87
5.31573	0.872
5.34889	0.871
5.38205	0.859
5.41521	0.851
5.44837	0.809
5.48153	0.79
5.51469	0.81
5.54785	0.794
5.581	0.762
5.61416	0.714
5.64732	0.616
5.68048	0.177
5.71364	0.046
5.7468	0.114
5.77996	0.267
5.81312	0.514
5.84628	0.652
5.87943	0.724
5.91259	0.737
5.94575	0.775
5.97891	0.771
6.01207	0.745
6.04523	0.702
6.07839	0.688
6.11155	0.619
6.14471	0.507
6.17786	0.128
6.21102	0.112
6.24418	0.327
6.27734	0.18
6.3105	0.078
6.34366	0.454
6.37682	0.583
6.40998	0.465
6.44314	0.372
6.47629	0.291
6.50945	0.24
6.54261	0.042
6.57577	0.007
6.60893	0.011
6.64209	0.031
6.67525	0.118
6.70841	0.312
6.74157	0.338
6.77473	0.282
6.80788	0.202
6.84104	0.094
6.8742	0.11
6.90736	0.141
6.94052	0.055
6.97368	0.071
7.00684	0.161
7.04	0.29
7.07316	0.387
7.10631	0.436
7.13947	0.462
7.17263	0.431
7.20579	0.371
7.23895	0.417
7.27211	0.485
7.30527	0.469
7.33843	0.36
7.37159	0.173
7.40474	0.015
7.4379	0.013
7.47106	0.061
7.50422	0.218
7.53738	0.295
7.57054	0.168
7.6037	0.222
7.63686	0.258
7.67002	0.275
7.70317	0.249
7.73633	0.179
7.76949	0.106
7.80265	0.094
7.83581	0.096
7.86897	0.131
7.90213	0.14
7.93529	0.161
7.96845	0.122
8.00161	0.05
8.03476	0.003
8.06792	0.025
8.10108	0.086
8.13424	0.2
8.1674	0.265
8.20056	0.216
8.23372	0.127
8.26688	0.039
8.30004	0.003
8.33319	0.003
8.36635	0.051
8.39951	0.181
8.43267	0.315
8.46583	0.448
8.49899	0.5
8.53215	0.485
8.56531	0.36
8.59847	0.266
8.63162	0.291
8.66478	0.392
8.69794	0.319
8.7311	0.314
8.76426	0.537
8.79742	0.644
8.83058	0.692
8.86374	0.712
8.8969	0.71
8.93005	0.701
8.96321	0.667
8.99637	0.653
9.02953	0.665
9.06269	0.644
9.09585	0.616
9.12901	0.505
9.16217	0.399
9.19533	0.285
9.22848	0.248
9.26164	0.301
9.2948	0.412
9.32796	0.364
9.36112	0.248
9.39428	0.189
9.42744	0.233
9.4606	0.213
9.49376	0.206
9.52692	0.267
9.56007	0.334
9.59323	0.294
9.62639	0.396
9.65955	0.453
9.69271	0.482
9.72587	0.537
9.75903	0.592
9.79219	0.624
9.82535	0.643
9.8585	0.721
9.89166	0.769
9.92482	0.801
9.95798	0.815
9.99114	0.824
10.0243	0.826
10.0575	0.826
10.0906	0.824
10.1238	0.823
10.1569	0.819
10.1901	0.816
10.2233	0.812
10.2564	0.795
10.2896	0.758
10.3227	0.704
10.3559	0.675
10.389	0.648
10.4222	0.637
10.4554	0.633
10.4885	0.624
10.5217	0.588
10.5548	0.518
10.588	0.543
10.6212	0.614
10.6543	0.685
10.6875	0.734
10.7206	0.779
10.7538	0.807
10.787	0.826
10.8201	0.826
10.8533	0.823
10.8864	0.81
10.9196	0.783
10.9527	0.769
10.9859	0.769
11.0191	0.783
11.0522	0.789
11.0854	0.791
11.1185	0.791
11.1517	0.791
11.1849	0.786
11.218	0.77
11.2512	0.759
11.2843	0.765
11.3175	0.775
11.3507	0.779
11.3838	0.777
11.417	0.771
11.4501	0.738
11.4833	0.709
11.5165	0.668
11.5496	0.586
11.5828	0.395
11.6159	0.393
11.6491	0.522
11.6822	0.652
11.7154	0.71
11.7486	0.714
11.7817	0.709
11.8149	0.689
11.848	0.664
11.8812	0.633
11.9144	0.586
11.9475	0.551
11.9807	0.542
12.0138	0.58
12.047	0.627
12.0802	0.693
12.1133	0.732
12.1465	0.765
12.1796	0.782
12.2128	0.794
12.2459	0.801
12.2791	0.802
12.3123	0.806
12.3454	0.81
12.3786	0.806
12.4117	0.805
12.4449	0.801
12.4781	0.793
12.5112	0.787
12.5444	0.771
12.5775	0.753
12.6107	0.716
12.6439	0.667
12.677	0.598
12.7102	0.47
12.7433	0.376
12.7765	0.318
12.8096	0.32
12.8428	0.403
12.876	0.5
12.9091	0.551
12.9423	0.558
12.9754	0.513
13.0086	0.445
13.0418	0.393
13.0749	0.395
13.1081	0.416
13.1412	0.457
13.1744	0.492
13.2076	0.541
13.2407	0.553
13.2739	0.55
13.307	0.507
13.3402	0.432
13.3733	0.328
13.4065	0.201
13.4397	0.136
13.4728	0.108
13.506	0.106
13.5391	0.137
13.5723	0.197
13.6055	0.286
13.6386	0.376
13.6718	0.429
13.7049	0.482
13.7381	0.53
13.7713	0.554
13.8044	0.576
13.8376	0.602
13.8707	0.618
13.9039	0.631
13.9371	0.641
13.9702	0.647
14.0034	0.649
14.0365	0.648
14.0697	0.644
14.1028	0.641
14.136	0.636
14.1692	0.631
14.2023	0.623
14.2355	0.61
14.2686	0.599
14.3018	0.586
14.335	0.571
14.3681	0.559
14.4013	0.534
14.4344	0.489
14.4676	0.452
14.5008	0.419
14.5339	0.399
14.5671	0.393
14.6002	0.404
14.6334	0.403
14.6665	0.396
14.6997	0.377
14.7329	0.363
14.766	0.352
14.7992	0.338
14.8323	0.359
14.8655	0.358
14.8987	0.352
14.9318	0.362
14.965	0.366
14.9981	0.363
