Infrared Spectrum: CYCLOBUTYLAMINE, 3-PHENYL-, HYDROCHLORIDE, TRANS-
Formula: C10 H14 Cl N
CAS: 90874-40-1
State: SOLID (KBr DISC)
Class: COBLENTZ III
Instrument: PERKIN-ELMER 21 (GRATING)
Instrument parameters: NaCl PRISM
Sampling: TRANSMISSION
Resolution: 2
Origin: SMITH KLINE & FRENCH LABS.
MICROMETERS	TRANSMITTANCE
1.998	0.4
2.0322	0.399
2.06641	0.393
2.10061	0.398
2.13481	0.402
2.16901	0.401
2.20322	0.4
2.23742	0.399
2.27162	0.402
2.30583	0.406
2.34003	0.417
2.37423	0.426
2.40843	0.434
2.44264	0.44
2.47684	0.444
2.51104	0.448
2.54525	0.451
2.57945	0.454
2.61365	0.461
2.64786	0.466
2.68206	0.468
2.71626	0.476
2.75046	0.484
2.78467	0.478
2.81887	0.476
2.85307	0.45
2.88728	0.413
2.92148	0.4
2.95568	0.39
2.98988	0.39
3.02409	0.396
3.05829	0.401
3.09249	0.41
3.1267	0.411
3.1609	0.401
3.1951	0.369
3.2293	0.304
3.26351	0.236
3.29771	0.211
3.33191	0.157
3.36612	0.117
3.40032	0.101
3.43452	0.078
3.46873	0.078
3.50293	0.063
3.53713	0.073
3.57133	0.079
3.60554	0.125
3.63974	0.134
3.67394	0.14
3.70815	0.15
3.74235	0.19
3.77655	0.225
3.81075	0.23
3.84496	0.258
3.87916	0.275
3.91336	0.306
3.94757	0.335
3.98177	0.355
4.01597	0.368
4.05017	0.393
4.08438	0.424
4.11858	0.448
4.15278	0.461
4.18699	0.5
4.22119	0.522
4.25539	0.529
4.2896	0.533
4.3238	0.54
4.358	0.548
4.3922	0.581
4.42641	0.599
4.46061	0.61
4.49481	0.623
4.52902	0.63
4.56322	0.642
4.59742	0.639
4.63162	0.642
4.66583	0.663
4.70003	0.67
4.73423	0.671
4.76844	0.659
4.80264	0.645
4.83684	0.577
4.87104	0.474
4.90525	0.421
4.93945	0.42
4.97365	0.482
5.00786	0.523
5.04206	0.567
5.07626	0.593
5.11047	0.609
5.14467	0.616
5.17887	0.663
5.21307	0.675
5.24728	0.68
5.28148	0.678
5.31568	0.665
5.34989	0.693
5.38409	0.71
5.41829	0.711
5.45249	0.705
5.4867	0.695
5.5209	0.698
5.5551	0.711
5.58931	0.725
5.62351	0.735
5.65771	0.73
5.69191	0.716
5.72612	0.716
5.76032	0.708
5.79452	0.699
5.82873	0.71
5.86293	0.703
5.89713	0.698
5.93134	0.687
5.96554	0.66
5.99974	0.634
6.03394	0.625
6.06815	0.621
6.10235	0.617
6.13655	0.61
6.17076	0.525
6.20496	0.315
6.23916	0.285
6.27336	0.407
6.30757	0.496
6.34177	0.559
6.37597	0.614
6.41018	0.628
6.44438	0.625
6.47858	0.628
6.51278	0.62
6.54699	0.581
6.58119	0.417
6.61539	0.324
6.6496	0.255
6.6838	0.233
6.718	0.427
6.75221	0.547
6.78641	0.582
6.82061	0.615
6.85481	0.616
6.88902	0.445
6.92322	0.406
6.95742	0.556
6.99163	0.449
7.02583	0.482
7.06003	0.6
7.09423	0.645
7.12844	0.666
7.16264	0.672
7.19684	0.637
7.23105	0.45
7.26525	0.506
7.29945	0.61
7.33365	0.656
7.36786	0.677
7.40206	0.678
7.43626	0.617
7.47047	0.595
7.50467	0.631
7.53887	0.676
7.57308	0.711
7.60728	0.714
7.64148	0.73
7.67568	0.732
7.70989	0.739
7.74409	0.743
7.77829	0.743
7.8125	0.736
7.8467	0.72
7.8809	0.681
7.9151	0.715
7.94931	0.711
7.98351	0.567
8.01771	0.537
8.05192	0.615
8.08612	0.634
8.12032	0.636
8.15452	0.652
8.18873	0.691
8.22293	0.693
8.25713	0.645
8.29134	0.642
8.32554	0.686
8.35974	0.703
8.39395	0.711
8.42815	0.711
8.46235	0.695
8.49655	0.688
8.53076	0.682
8.56496	0.663
8.59916	0.626
8.63337	0.626
8.66757	0.6
8.70177	0.545
8.73597	0.529
8.77018	0.633
8.80438	0.652
8.83858	0.661
8.87279	0.666
8.90699	0.666
8.94119	0.666
8.97539	0.659
9.0096	0.655
9.0438	0.654
9.078	0.654
9.11221	0.665
9.14641	0.647
9.18061	0.571
9.21482	0.39
9.24902	0.395
9.28322	0.52
9.31742	0.601
9.35163	0.652
9.38583	0.666
9.42003	0.677
9.45424	0.678
9.48844	0.693
9.52264	0.7
9.55684	0.704
9.59105	0.694
9.62525	0.634
9.65945	0.567
9.69366	0.61
9.72786	0.605
9.76206	0.665
9.79626	0.7
9.83047	0.715
9.86467	0.725
9.89887	0.731
9.93308	0.732
9.96728	0.73
10.0015	0.691
10.0357	0.731
10.0699	0.742
10.1041	0.752
10.1383	0.75
10.1725	0.706
10.2067	0.672
10.2409	0.72
10.2751	0.741
10.3093	0.737
10.3435	0.722
10.3777	0.683
10.4119	0.61
10.4461	0.665
10.4803	0.743
10.5145	0.771
10.5487	0.786
10.5829	0.799
10.6171	0.802
10.6513	0.804
10.6855	0.818
10.7197	0.799
10.7539	0.769
10.7881	0.772
10.8224	0.792
10.8566	0.803
10.8908	0.786
10.925	0.748
10.9592	0.747
10.9934	0.766
11.0276	0.8
11.0618	0.811
11.096	0.821
11.1302	0.822
11.1644	0.831
11.1986	0.846
11.2328	0.849
11.267	0.851
11.3012	0.855
11.3354	0.849
11.3696	0.851
11.4038	0.854
11.438	0.857
11.4722	0.858
11.5064	0.862
11.5406	0.869
11.5748	0.871
11.609	0.873
11.6432	0.876
11.6774	0.869
11.7116	0.853
11.7458	0.857
11.78	0.868
11.8142	0.879
11.8484	0.881
11.8826	0.896
11.9168	0.901
11.951	0.903
11.9853	0.907
12.0195	0.902
12.0537	0.902
12.0879	0.903
12.1221	0.907
12.1563	0.905
12.1905	0.897
12.2247	0.899
12.2589	0.903
12.2931	0.898
12.3273	0.892
12.3615	0.892
12.3957	0.887
12.4299	0.87
12.4641	0.853
12.4983	0.837
12.5325	0.803
12.5667	0.799
12.6009	0.8
12.6351	0.809
12.6693	0.831
12.7035	0.842
12.7377	0.849
12.7719	0.871
12.8061	0.874
12.8403	0.885
12.8745	0.882
12.9087	0.876
12.9429	0.877
12.9771	0.881
13.0113	0.88
13.0455	0.873
13.0797	0.858
13.1139	0.843
13.1482	0.81
13.1824	0.78
13.2166	0.726
13.2508	0.667
13.285	0.531
13.3192	0.355
13.3534	0.253
13.3876	0.222
13.4218	0.157
13.456	0.139
13.4902	0.255
13.5244	0.474
13.5586	0.632
13.5928	0.708
13.627	0.764
13.6612	0.78
13.6954	0.792
13.7296	0.8
13.7638	0.813
13.798	0.838
13.8322	0.854
13.8664	0.864
13.9006	0.864
13.9348	0.869
13.969	0.87
14.0032	0.862
14.0374	0.846
14.0716	0.816
14.1058	0.788
14.14	0.727
14.1742	0.644
14.2084	0.518
14.2426	0.357
14.2768	0.225
14.311	0.167
14.3453	0.164
14.3795	0.271
14.4137	0.423
14.4479	0.566
14.4821	0.669
14.5163	0.726
14.5505	0.753
14.5847	0.769
14.6189	0.777
14.6531	0.783
14.6873	0.785
14.7215	0.78
14.7557	0.775
14.7899	0.744
14.8241	0.68
14.8583	0.622
14.8925	0.647
14.9267	0.721
14.9609	0.744
14.9951	0.757
15.0293	0.759
15.0635	0.794
