Infrared Spectrum: Cyclopropylamine, 2-benzyl-, hydrochloride
Formula: C10 H14 Cl N
CAS: 90874-44-5
State: SOLID (OIL MULL)
Class: COBLENTZ III
Instrument: PERKIN-ELMER 21 (GRATING)
Instrument parameters: NaCl PRISM
Sampling: TRANSMISSION
Resolution: 2
Origin: SMITH, KLINE & FRENCH LABS.
1/CM	TRANSMITTANCE
667	0.6663
676	0.7066
685	0.6932
694	0.4182
703	0.2607
712	0.7173
721	0.6778
730	0.5218
739	0.3847
748	0.4589
757	0.6308
766	0.6411
775	0.7801
784	0.8153
793	0.8085
802	0.7792
811	0.7835
820	0.6604
829	0.7958
838	0.7887
847	0.7413
856	0.7102
865	0.7918
874	0.7692
883	0.8093
892	0.7958
901	0.7706
910	0.7603
919	0.7105
928	0.7558
937	0.7432
946	0.6747
955	0.7299
964	0.7159
973	0.7073
982	0.7429
991	0.748
1000	0.7346
1009	0.6843
1018	0.4952
1027	0.6258
1036	0.6273
1045	0.6695
1054	0.7396
1063	0.7515
1072	0.6316
1081	0.7423
1090	0.7495
1099	0.7503
1108	0.7416
1117	0.6865
1126	0.7475
1135	0.7477
1144	0.7255
1153	0.6967
1162	0.6967
1171	0.6499
1180	0.5935
1189	0.6197
1198	0.6984
1207	0.716
1216	0.7234
1225	0.7223
1234	0.7031
1243	0.7071
1252	0.7266
1261	0.7361
1270	0.7264
1279	0.718
1288	0.6755
1297	0.6786
1306	0.7002
1315	0.7079
1324	0.6971
1333	0.6659
1342	0.6309
1351	0.6131
1360	0.4946
1369	0.3632
1378	0.2971
1387	0.5414
1396	0.6608
1405	0.6643
1414	0.6788
1423	0.6429
1432	0.4991
1441	0.2362
1450	0.1076
1459	0.1283
1468	0.1722
1477	0.4318
1486	0.4315
1495	0.4213
1504	0.4702
1513	0.4499
1522	0.3464
1531	0.3024
1540	0.5895
1549	0.6003
1558	0.5185
1567	0.5148
1576	0.5399
1585	0.5128
1594	0.3781
1603	0.3026
1612	0.474
1621	0.6875
1630	0.7451
1639	0.7686
1648	0.7788
1657	0.7806
1666	0.7813
1675	0.7818
1684	0.7852
1693	0.79
1702	0.7942
1711	0.7926
1720	0.7969
1729	0.8002
1738	0.7993
1747	0.7921
1756	0.7854
1765	0.7861
1774	0.7834
1783	0.7856
1792	0.7805
1801	0.7721
1810	0.7602
1819	0.7583
1828	0.7595
1837	0.7631
1846	0.7655
1855	0.7634
1864	0.7579
1873	0.7517
1882	0.7474
1891	0.7454
1900	0.7434
1909	0.7371
1918	0.7298
1927	0.723
1936	0.7154
1945	0.7069
1954	0.7003
1963	0.6945
1972	0.6913
1981	0.6913
1990	0.6905
1999	0.6912
2008	0.6995
2017	0.7037
2026	0.7085
2035	0.7175
2044	0.7297
2053	0.742
2062	0.7485
2071	0.749
2080	0.7498
2089	0.7511
2098	0.7529
2107	0.7567
2116	0.7599
2125	0.7593
2134	0.7567
2143	0.7538
2152	0.7522
2161	0.7508
2170	0.7497
2179	0.7488
2188	0.748
2197	0.747
2206	0.7457
2215	0.7442
2224	0.7409
2233	0.7378
2242	0.7353
2251	0.7331
2260	0.7311
2269	0.7293
2278	0.7224
2287	0.7177
2296	0.7115
2305	0.6977
2314	0.6801
2323	0.6767
2332	0.6753
2341	0.6734
2350	0.6716
2359	0.6697
2368	0.6678
2377	0.6648
2386	0.6611
2395	0.6562
2404	0.6521
2413	0.6417
2422	0.6335
2431	0.6283
2440	0.6237
2449	0.6097
2458	0.5946
2467	0.5853
2476	0.5784
2485	0.5729
2494	0.5657
2503	0.5517
2512	0.5245
2521	0.5009
2530	0.4899
2539	0.4845
2548	0.4795
2557	0.4745
2566	0.469
2575	0.4618
2584	0.4469
2593	0.4244
2602	0.4036
2611	0.3829
2620	0.3624
2629	0.3444
2638	0.3344
2647	0.3191
2656	0.2599
2665	0.2478
2674	0.2477
2683	0.257
2692	0.2747
2701	0.283
2710	0.2832
2719	0.2808
2728	0.2776
2737	0.271
2746	0.2617
2755	0.2517
2764	0.241
2773	0.2302
2782	0.2193
2791	0.2069
2800	0.1715
2809	0.1183
2818	0.0916
2827	0.0694
2836	0.045
2845	0.0336
2854	0.0331
2863	0.0329
2872	0.033
2881	0.0332
2890	0.033
2899	0.0325
2908	0.0319
2917	0.0314
2926	0.0303
2935	0.0291
2944	0.0304
2953	0.0324
2962	0.0362
2971	0.0435
2980	0.0681
2989	0.0759
2998	0.0801
3007	0.101
3016	0.1478
3025	0.1619
3034	0.1648
3043	0.1674
3052	0.1775
3061	0.1859
3070	0.2103
3079	0.2641
3088	0.2946
3097	0.3154
3106	0.3355
3115	0.3569
3124	0.3797
3133	0.4119
3142	0.4486
3151	0.4851
3160	0.5293
3169	0.5706
3178	0.5938
3187	0.6075
3196	0.6214
3205	0.6352
3214	0.6489
3223	0.678
3232	0.7079
3241	0.7147
3250	0.7186
3259	0.7215
3268	0.7242
3277	0.7254
3286	0.7261
3295	0.7255
3304	0.7248
3313	0.7242
3322	0.7234
3331	0.7225
3340	0.7216
3349	0.7206
3358	0.7198
3367	0.7192
3376	0.7184
3385	0.7176
3394	0.7169
3403	0.7162
3412	0.7157
3421	0.7151
3430	0.7145
3439	0.714
3448	0.7135
3457	0.7129
3466	0.7129
3475	0.7129
3484	0.7129
3493	0.713
3502	0.7132
3511	0.7132
3520	0.7124
3529	0.711
3538	0.7095
3547	0.708
3556	0.7066
3565	0.7044
3574	0.7019
3583	0.6995
3592	0.6969
3601	0.6949
3610	0.6928
3619	0.6908
3628	0.6896
3637	0.6887
3646	0.6878
3655	0.6869
3664	0.6861
3673	0.6853
3682	0.6841
3691	0.6826
3700	0.6809
3709	0.6794
3718	0.6778
3727	0.676
3736	0.6743
3745	0.6727
3754	0.671
3763	0.6693
3772	0.6676
3781	0.6657
3790	0.6632
3799	0.6607
3808	0.6588
3817	0.6571
3826	0.6554
3835	0.6537
3844	0.6521
3853	0.6504
3862	0.6492
3871	0.6485
3880	0.6476
3889	0.6469
3898	0.6461
3907	0.6454
3916	0.6446
3925	0.6434
3934	0.642
3943	0.6407
3952	0.6393
3961	0.638
3970	0.6362
3979	0.634
3988	0.6319
3997	0.6297
