Infrared Spectrum: UREA, 1-METHYL-3-[2-[6-(METHYLTHIO)-9H-PURIN-9-YL]ETHYL]-
Formula: C10 H14 N6 O S
CAS: 90924-88-2
State: SOLID (0.7 mg / 500 mg KBr DISC)
Class: COBLENTZ III
Instrument: PERKIN-ELMER 221 (GRATING)
Instrument parameters: FILTER CHANGES AT 2490, 980 CM^-^1, GRATING FOR 4000-1428 CM^-^1, NaCl PRISM FOR 1428-650 CM^-^1
Sampling: TRANSMISSION
Resolution: 4
Origin: SOUTHERN RESEARCH INST.
1/CM	TRANSMITTANCE
593.359	0.73
602.909	0.726
612.459	0.697
622.009	0.651
631.559	0.641
641.109	0.553
650.659	0.759
660.209	0.791
669.759	0.793
679.308	0.841
688.858	0.838
698.408	0.863
707.958	0.896
717.508	0.899
727.058	0.917
736.608	0.941
746.158	0.942
755.708	0.936
765.258	0.916
774.808	0.895
784.358	0.895
793.908	0.817
803.458	0.955
813.008	0.953
822.558	0.947
832.108	0.917
841.657	0.884
851.207	0.796
860.757	0.852
870.307	0.932
879.857	0.891
889.407	0.853
898.957	0.899
908.507	0.922
918.057	0.874
927.607	0.817
937.157	0.667
946.707	0.884
956.257	0.89
965.807	0.876
975.357	0.839
984.907	0.909
994.457	0.912
1004.01	0.91
1013.56	0.907
1023.11	0.899
1032.66	0.877
1042.21	0.696
1051.76	0.897
1061.31	0.896
1070.86	0.887
1080.41	0.854
1089.96	0.886
1099.51	0.892
1109.06	0.891
1118.61	0.885
1128.16	0.86
1137.71	0.817
1147.26	0.609
1156.81	0.796
1166.36	0.794
1175.91	0.786
1185.46	0.745
1195.01	0.582
1204.56	0.794
1214.11	0.817
1223.66	0.515
1233.21	0.616
1242.76	0.74
1252.31	0.562
1261.85	0.564
1271.4	0.523
1280.95	0.604
1290.5	0.679
1300.05	0.715
1309.6	0.761
1319.15	0.731
1328.7	0.459
1338.25	0.623
1347.8	0.742
1357.35	0.804
1366.9	0.828
1376.45	0.682
1386	0.625
1395.55	0.626
1405.1	0.753
1414.65	0.688
1424.2	0.737
1433.75	0.724
1443.3	0.574
1452.85	0.697
1462.4	0.865
1471.95	0.873
1481.5	0.869
1491.05	0.798
1500.6	0.708
1510.15	0.787
1519.7	0.724
1529.25	0.645
1538.8	0.661
1548.35	0.597
1557.9	0.477
1567.45	0.212
1577	0.137
1586.55	0.287
1596.1	0.241
1605.65	0.305
1615.2	0.337
1624.75	0.214
1634.3	0.126
1643.85	0.373
1653.4	0.554
1662.95	0.652
1672.5	0.749
1682.05	0.82
1691.6	0.874
1701.15	0.902
1710.7	0.921
1720.25	0.93
1729.8	0.933
1739.35	0.938
1748.9	0.942
1758.45	0.94
1768	0.934
1777.55	0.925
1787.1	0.923
1796.65	0.94
1806.2	0.952
1815.75	0.958
1825.3	0.959
1834.85	0.961
1844.4	0.962
1853.95	0.962
1863.5	0.96
1873.05	0.959
1882.6	0.956
1892.15	0.954
1901.7	0.951
1911.25	0.953
1920.8	0.958
1930.35	0.961
1939.9	0.958
1949.45	0.957
1959	0.955
1968.55	0.954
1978.1	0.953
1987.65	0.951
1997.2	0.95
2006.75	0.949
2016.3	0.947
2025.85	0.944
2035.4	0.942
2044.95	0.94
2054.5	0.94
2064.05	0.939
2073.6	0.939
2083.15	0.937
2092.7	0.937
2102.25	0.936
2111.8	0.936
2121.35	0.934
2130.9	0.934
2140.45	0.933
2150	0.933
2159.55	0.933
2169.1	0.933
2178.65	0.932
2188.2	0.932
2197.75	0.931
2207.3	0.931
2216.85	0.93
2226.4	0.929
2235.95	0.929
2245.5	0.929
2255.05	0.927
2264.6	0.925
2274.15	0.924
2283.7	0.922
2293.25	0.92
2302.8	0.918
2312.35	0.916
2321.9	0.915
2331.45	0.914
2341	0.913
2350.55	0.912
2360.1	0.911
2369.65	0.911
2379.2	0.911
2388.75	0.91
2398.3	0.91
2407.85	0.91
2417.4	0.91
2426.95	0.91
2436.5	0.908
2446.05	0.906
2455.6	0.905
2465.15	0.903
2474.7	0.902
2484.25	0.9
2493.8	0.899
2503.35	0.898
2512.9	0.897
2522.45	0.896
2532	0.895
2541.55	0.895
2551.1	0.895
2560.65	0.895
2570.2	0.894
2579.75	0.893
2589.3	0.892
2598.85	0.891
2608.4	0.891
2617.95	0.89
2627.5	0.889
2637.05	0.888
2646.6	0.886
2656.15	0.884
2665.7	0.883
2675.25	0.881
2684.8	0.88
2694.35	0.88
2703.9	0.879
2713.45	0.878
2723	0.878
2732.55	0.877
2742.1	0.877
2751.65	0.876
2761.2	0.873
2770.75	0.869
2780.3	0.865
2789.85	0.858
2799.4	0.842
2808.95	0.831
2818.5	0.841
2828.05	0.837
2837.6	0.832
2847.15	0.817
2856.7	0.811
2866.25	0.804
2875.8	0.795
2885.35	0.791
2894.9	0.787
2904.45	0.781
2913.99	0.776
2923.54	0.742
2933.09	0.666
2942.64	0.716
2952.19	0.764
2961.74	0.781
2971.29	0.794
2980.84	0.797
2990.39	0.796
2999.94	0.791
3009.49	0.789
3019.04	0.787
3028.59	0.786
3038.14	0.78
3047.69	0.766
3057.24	0.764
3066.79	0.777
3076.34	0.763
3085.89	0.711
3095.44	0.742
3104.99	0.821
3114.54	0.822
3124.09	0.81
3133.64	0.791
3143.19	0.772
3152.74	0.77
3162.29	0.772
3171.84	0.773
3181.39	0.773
3190.94	0.775
3200.49	0.773
3210.04	0.768
3219.59	0.761
3229.14	0.753
3238.69	0.735
3248.24	0.712
3257.79	0.703
3267.34	0.681
3276.89	0.663
3286.44	0.635
3295.99	0.606
3305.54	0.567
3315.09	0.515
3324.64	0.442
3334.19	0.375
3343.74	0.343
3353.29	0.339
3362.84	0.338
3372.39	0.389
3381.94	0.507
3391.49	0.569
3401.04	0.619
3410.59	0.657
3420.14	0.667
3429.69	0.676
3439.24	0.693
3448.79	0.701
3458.34	0.709
3467.89	0.717
3477.44	0.723
3486.99	0.729
3496.54	0.735
3506.09	0.742
3515.64	0.748
3525.19	0.753
3534.74	0.762
3544.29	0.769
3553.84	0.776
3563.39	0.783
3572.94	0.79
3582.49	0.796
3592.04	0.799
3601.59	0.81
3611.14	0.826
3620.69	0.834
3630.24	0.835
3639.79	0.837
3649.34	0.838
3658.89	0.838
3668.44	0.838
3677.99	0.837
3687.54	0.837
3697.09	0.839
3706.64	0.84
3716.19	0.84
3725.74	0.839
3735.29	0.836
3744.84	0.835
3754.39	0.836
3763.94	0.837
3773.49	0.837
3783.04	0.837
3792.59	0.837
3802.14	0.836
3811.69	0.836
3821.24	0.836
3830.79	0.835
3840.34	0.835
3849.89	0.835
3859.44	0.834
3868.99	0.833
3878.54	0.832
3888.09	0.832
3897.64	0.83
3907.19	0.829
3916.74	0.828
3926.29	0.828
3935.84	0.828
3945.39	0.827
3954.94	0.826
3964.49	0.825
3974.04	0.824
3983.59	0.824
3993.14	0.824
4002.69	0.824
4012.24	0.824
