Infrared Spectrum: (n-PENTYLSULFONYL) METHYL-4-THIAZOLINE-2-THIONE
Formula: C9 H15 N O2 S3
CAS: 90942-87-3
State: SOLID (KBr PELLET)
Melting point: 164-165 C
Class: COBLENTZ
Instrument: Not specified, most likely a prism, grating, or hybrid spectrometer.
Sampling: TRANSMISSION
Resolution: 4
Origin: EASTMAN KODAK COMPANY, RESEARCH LABORATORIES, ROCHESTER, N.Y.
MICROMETERS	TRANSMITTANCE
2.486	0.626
2.52594	0.625
2.56589	0.631
2.60583	0.636
2.64577	0.641
2.68571	0.648
2.72566	0.646
2.7656	0.638
2.80554	0.585
2.84549	0.531
2.88543	0.508
2.92537	0.49
2.96532	0.511
3.00526	0.549
3.0452	0.574
3.08514	0.569
3.12509	0.549
3.16503	0.518
3.20497	0.384
3.24492	0.184
3.28486	0.383
3.3248	0.274
3.36475	0.241
3.40469	0.238
3.44463	0.291
3.48457	0.233
3.52452	0.361
3.56446	0.458
3.6044	0.521
3.64435	0.557
3.68429	0.509
3.72423	0.58
3.76418	0.638
3.80412	0.654
3.84406	0.669
3.884	0.689
3.92395	0.7
3.96389	0.68
4.00383	0.697
4.04378	0.723
4.08372	0.731
4.12366	0.731
4.16361	0.736
4.20355	0.74
4.24349	0.741
4.28343	0.74
4.32338	0.748
4.36332	0.751
4.40326	0.763
4.44321	0.758
4.48315	0.764
4.52309	0.771
4.56304	0.774
4.60298	0.769
4.64292	0.771
4.68286	0.771
4.72281	0.764
4.76275	0.768
4.80269	0.773
4.84264	0.771
4.88258	0.771
4.92252	0.773
4.96246	0.774
5.00241	0.779
5.04235	0.781
5.08229	0.786
5.12224	0.791
5.16218	0.797
5.20212	0.8
5.24207	0.804
5.28201	0.81
5.32195	0.817
5.36189	0.817
5.40184	0.822
5.44178	0.824
5.48172	0.822
5.52167	0.827
5.56161	0.824
5.60155	0.833
5.6415	0.827
5.68144	0.83
5.72138	0.822
5.76132	0.804
5.80127	0.8
5.84121	0.819
5.88115	0.817
5.9211	0.819
5.96104	0.817
6.00098	0.81
6.04093	0.794
6.08087	0.781
6.12081	0.768
6.16075	0.761
6.2007	0.774
6.24064	0.759
6.28058	0.539
6.32053	0.569
6.36047	0.769
6.40041	0.777
6.44036	0.781
6.4803	0.773
6.52024	0.771
6.56018	0.759
6.60013	0.769
6.64007	0.8
6.68001	0.781
6.71996	0.751
6.7599	0.603
6.79984	0.207
6.83979	0.371
6.87973	0.523
6.91967	0.601
6.95961	0.7
6.99956	0.763
7.0395	0.761
7.07944	0.75
7.11939	0.559
7.15933	0.511
7.19927	0.728
7.23922	0.759
7.27916	0.736
7.3191	0.761
7.35904	0.73
7.39899	0.608
7.43893	0.639
7.47887	0.69
7.51882	0.669
7.55876	0.37
7.5987	0.263
7.63864	0.189
7.67859	0.138
7.71853	0.171
7.75847	0.417
7.79842	0.567
7.83836	0.539
7.8783	0.539
7.91825	0.411
7.95819	0.248
7.99813	0.205
8.03807	0.476
8.07802	0.644
8.11796	0.72
8.1579	0.763
8.19785	0.787
8.23779	0.8
8.27773	0.809
8.31768	0.792
8.35762	0.794
8.39756	0.771
8.4375	0.725
8.47745	0.726
8.51739	0.649
8.55733	0.23
8.59728	0.213
8.63722	0.3
8.67716	0.542
8.71711	0.631
8.75705	0.649
8.79699	0.593
8.83693	0.46
8.87688	0.042
8.91682	0.179
8.95676	0.43
8.99671	0.509
9.03665	0.629
9.07659	0.712
9.11654	0.738
9.15648	0.674
9.19642	0.628
9.23636	0.685
9.27631	0.47
9.31625	0.159
9.35619	0.368
9.39614	0.481
9.43608	0.572
9.47602	0.671
9.51597	0.722
9.55591	0.741
9.59585	0.758
9.63579	0.768
9.67574	0.787
9.71568	0.792
9.75562	0.8
9.79557	0.812
9.83551	0.822
9.87545	0.832
9.91539	0.838
9.95534	0.838
9.99528	0.84
10.0352	0.845
10.0752	0.85
10.1151	0.847
10.1551	0.842
10.195	0.84
10.2349	0.828
10.2749	0.8
10.3148	0.735
10.3548	0.72
10.3947	0.69
10.4347	0.578
10.4746	0.419
10.5145	0.511
10.5545	0.679
10.5944	0.759
10.6344	0.812
10.6743	0.838
10.7143	0.847
10.7542	0.85
10.7941	0.858
10.8341	0.865
10.874	0.881
10.914	0.883
10.9539	0.879
10.9939	0.87
11.0338	0.851
11.0737	0.82
11.1137	0.712
11.1536	0.467
11.1936	0.588
11.2335	0.753
11.2735	0.817
11.3134	0.847
11.3533	0.87
11.3933	0.878
11.4332	0.881
11.4732	0.881
11.5131	0.879
11.5531	0.873
11.593	0.86
11.6329	0.833
11.6729	0.807
11.7128	0.802
11.7528	0.828
11.7927	0.845
11.8327	0.842
11.8726	0.822
11.9125	0.791
11.9525	0.789
11.9924	0.812
12.0324	0.819
12.0723	0.81
12.1123	0.792
12.1522	0.759
12.1921	0.717
12.2321	0.613
12.272	0.46
12.312	0.338
12.3519	0.335
12.3919	0.421
12.4318	0.552
12.4717	0.641
12.5117	0.702
12.5516	0.74
12.5916	0.763
12.6315	0.769
12.6715	0.763
12.7114	0.74
12.7513	0.708
12.7913	0.69
12.8312	0.671
12.8712	0.664
12.9111	0.664
12.9511	0.679
12.991	0.699
13.0309	0.718
13.0709	0.722
13.1108	0.712
13.1508	0.703
13.1907	0.703
13.2307	0.736
13.2706	0.758
13.3105	0.763
13.3505	0.74
13.3904	0.712
13.4304	0.707
13.4703	0.74
13.5103	0.773
13.5502	0.804
13.5901	0.814
13.6301	0.82
13.67	0.82
13.71	0.822
13.7499	0.822
13.7899	0.822
13.8298	0.828
13.8698	0.832
13.9097	0.833
13.9496	0.832
13.9896	0.828
14.0295	0.815
14.0695	0.799
14.1094	0.763
14.1494	0.7
14.1893	0.592
14.2292	0.45
14.2692	0.388
14.3091	0.452
14.3491	0.569
14.389	0.652
14.429	0.712
14.4689	0.75
14.5088	0.763
14.5488	0.773
14.5887	0.786
14.6287	0.791
14.6686	0.792
14.7086	0.792
14.7485	0.791
14.7884	0.786
14.8284	0.779
14.8683	0.766
14.9083	0.735
14.9482	0.685
14.9882	0.705
15.0281	0.728
15.068	0.712
15.108	0.69
15.1479	0.638
15.1879	0.562
15.2278	0.539
15.2678	0.562
15.3077	0.601
15.3476	0.621
15.3876	0.629
15.4275	0.631
15.4675	0.631
15.5074	0.631
15.5474	0.633
15.5873	0.639
15.6272	0.638
15.6672	0.641
15.7071	0.643
15.7471	0.648
15.787	0.641
15.827	0.649
15.8669	0.646
15.9068	0.649
15.9468	0.651
15.9867	0.652
