Infrared Spectrum: 3,5-DIMETHOXY-1-HEXANOL
Formula: C8 H18 O3
CAS: 90952-10-6
State: LIQUID (NEAT)
Class: COBLENTZ III
Instrument: BAIRD NaCl PRISM
Sampling: TRANSMISSION
Path length: 0.003 CM
Resolution: 4
Origin: WYANDOTTE CHEMICALS CORP.
MICROMETERS	TRANSMITTANCE
2.025	0.863
2.06418	0.858
2.10337	0.84
2.14255	0.842
2.18173	0.815
2.22092	0.769
2.2601	0.796
2.29928	0.812
2.33847	0.81
2.37765	0.814
2.41683	0.798
2.45602	0.798
2.4952	0.826
2.53438	0.845
2.57356	0.852
2.61275	0.872
2.65193	0.872
2.69111	0.869
2.7303	0.846
2.76948	0.735
2.80866	0.554
2.84785	0.325
2.88703	0.133
2.92621	0.047
2.9654	0.038
3.00458	0.042
3.04376	0.076
3.08295	0.168
3.12213	0.289
3.16131	0.399
3.2005	0.454
3.23968	0.528
3.27886	0.468
3.31805	0.328
3.35723	0.068
3.39641	0.023
3.43559	0.02
3.47478	0.03
3.51396	0.033
3.55314	0.062
3.59233	0.26
3.63151	0.507
3.67069	0.573
3.70988	0.628
3.74906	0.654
3.78824	0.684
3.82743	0.708
3.86661	0.727
3.90579	0.767
3.94498	0.799
3.98416	0.825
4.02334	0.842
4.06253	0.852
4.10171	0.858
4.14089	0.863
4.18008	0.873
4.21926	0.894
4.25844	0.9
4.29762	0.894
4.33681	0.89
4.37599	0.89
4.41517	0.896
4.45436	0.909
4.49354	0.915
4.53272	0.91
4.57191	0.901
4.61109	0.894
4.65027	0.885
4.68946	0.868
4.72864	0.878
4.76782	0.888
4.80701	0.902
4.84619	0.902
4.88537	0.895
4.92456	0.905
4.96374	0.895
5.00292	0.896
5.04211	0.888
5.08129	0.891
5.12047	0.899
5.15965	0.902
5.19884	0.895
5.23802	0.904
5.2772	0.907
5.31639	0.9
5.35557	0.906
5.39475	0.912
5.43394	0.916
5.47312	0.932
5.5123	0.942
5.55149	0.939
5.59067	0.921
5.62985	0.912
5.66904	0.902
5.70822	0.889
5.7474	0.874
5.78659	0.875
5.82577	0.901
5.86495	0.905
5.90414	0.905
5.94332	0.904
5.9825	0.9
6.02169	0.891
6.06087	0.884
6.10005	0.882
6.13923	0.878
6.17842	0.877
6.2176	0.873
6.25678	0.869
6.29597	0.855
6.33515	0.872
6.37433	0.857
6.41352	0.839
6.4527	0.824
6.49188	0.819
6.53107	0.792
6.57025	0.756
6.60943	0.694
6.64862	0.582
6.6878	0.367
6.72698	0.245
6.76617	0.094
6.80535	0.082
6.84453	0.09
6.88372	0.098
6.9229	0.122
6.96208	0.153
7.00126	0.173
7.04045	0.185
7.07963	0.194
7.11881	0.199
7.158	0.154
7.19718	0.06
7.23636	0.033
7.27555	0.049
7.31473	0.098
7.35391	0.113
7.3931	0.148
7.43228	0.211
7.47146	0.299
7.51065	0.337
7.54983	0.353
7.58901	0.401
7.6282	0.439
7.66738	0.464
7.70656	0.46
7.74575	0.476
7.78493	0.482
7.82411	0.5
7.86329	0.498
7.90248	0.493
7.94166	0.48
7.98084	0.463
8.02003	0.422
8.05921	0.385
8.09839	0.352
8.13758	0.3
8.17676	0.238
8.21594	0.189
8.25513	0.122
8.29431	0.099
8.33349	0.083
8.37268	0.071
8.41186	0.067
8.45104	0.076
8.49023	0.093
8.52941	0.121
8.56859	0.122
8.60778	0.079
8.64696	0.036
8.68614	0.027
8.72533	0.023
8.76451	0.023
8.80369	0.029
8.84287	0.029
8.88206	0.024
8.92124	0.024
8.96042	0.027
8.99961	0.039
9.03879	0.035
9.07797	0.023
9.11716	0.02
9.15634	0.02
9.19552	0.02
9.23471	0.019
9.27389	0.022
9.31307	0.023
9.35226	0.023
9.39144	0.023
9.43062	0.024
9.46981	0.022
9.50899	0.027
9.54817	0.022
9.58736	0.035
9.62654	0.066
9.66572	0.11
9.7049	0.11
9.74409	0.114
9.78327	0.127
9.82245	0.148
9.86164	0.179
9.90082	0.202
9.94	0.24
9.97919	0.266
10.0184	0.291
10.0576	0.305
10.0967	0.316
10.1359	0.308
10.1751	0.307
10.2143	0.345
10.2535	0.386
10.2927	0.426
10.3318	0.449
10.371	0.463
10.4102	0.506
10.4494	0.522
10.4886	0.524
10.5278	0.549
10.5669	0.557
10.6061	0.568
10.6453	0.568
10.6845	0.552
10.7237	0.534
10.7629	0.524
10.802	0.476
10.8412	0.437
10.8804	0.391
10.9196	0.34
10.9588	0.316
10.9979	0.318
11.0371	0.321
11.0763	0.342
11.1155	0.356
11.1547	0.373
11.1939	0.386
11.233	0.439
11.2722	0.5
11.3114	0.557
11.3506	0.593
11.3898	0.636
11.429	0.665
11.4681	0.686
11.5073	0.711
11.5465	0.724
11.5857	0.728
11.6249	0.724
11.6641	0.681
11.7032	0.651
11.7424	0.577
11.7816	0.52
11.8208	0.48
11.86	0.472
11.8992	0.485
11.9383	0.529
11.9775	0.563
12.0167	0.613
12.0559	0.635
12.0951	0.653
12.1343	0.665
12.1734	0.66
12.2126	0.667
12.2518	0.651
12.291	0.631
12.3302	0.599
12.3694	0.561
12.4085	0.534
12.4477	0.504
12.4869	0.502
12.5261	0.479
12.5653	0.454
12.6045	0.439
12.6436	0.411
12.6828	0.406
12.722	0.405
12.7612	0.399
12.8004	0.398
12.8396	0.399
12.8787	0.409
12.9179	0.476
12.9571	0.517
12.9963	0.558
13.0355	0.603
13.0747	0.632
13.1138	0.667
13.153	0.685
13.1922	0.711
13.2314	0.716
13.2706	0.723
13.3098	0.728
13.3489	0.728
13.3881	0.727
13.4273	0.727
13.4665	0.724
13.5057	0.716
13.5449	0.713
13.584	0.712
13.6232	0.707
13.6624	0.707
13.7016	0.71
13.7408	0.706
13.78	0.702
13.8191	0.699
13.8583	0.699
13.8975	0.697
13.9367	0.696
13.9759	0.69
14.0151	0.687
14.0542	0.68
14.0934	0.674
14.1326	0.67
14.1718	0.667
14.211	0.66
14.2502	0.663
14.2893	0.658
14.3285	0.656
14.3677	0.64
14.4069	0.648
14.4461	0.651
14.4853	0.648
14.5244	0.644
14.5636	0.637
14.6028	0.638
14.642	0.638
14.6812	0.632
14.7204	0.627
14.7595	0.632
14.7987	0.635
14.8379	0.631
14.8771	0.615
14.9163	0.611
14.9555	0.617
14.9946	0.627
15.0338	0.638
15.073	0.636
15.1122	0.631
15.1514	0.614
15.1906	0.616
15.2297	0.611
15.2689	0.604
15.3081	0.615
15.3473	0.619
15.3865	0.615
15.4257	0.62
15.4648	0.631
15.504	0.622
15.5432	0.626
15.5824	0.619
15.6216	0.633
15.6607	0.641
15.6999	0.635
15.7391	0.635
15.7783	0.637
15.8175	0.648
15.8567	0.658
15.8958	0.662
15.935	0.663
15.9742	0.668
