Infrared Spectrum: Urea, 1-[2-[9H-(purin-6-yl)thio]ethyl]-
Formula: C8 H10 N6 O S
CAS: 90953-43-8
State: SOLID (1 mg / 650 mg KBr DISC)
Class: COBLENTZ III
Instrument: PERKIN-ELMER 221 (GRATING)
Instrument parameters: FILTER AT 2490, 980 CM^-^1. GRATING 4000-1428 CM^-^1, NaCl PRISM 1428-650 CM^-^1
Sampling: TRANSMISSION
Resolution: 2
Origin: SOUTHERN RESEARCH INSTITUTE
1/CM	TRANSMITTANCE
659	0.468
667.02	0.5115
675.041	0.5398
683.061	0.5409
691.082	0.5489
699.102	0.5728
707.122	0.6129
715.143	0.6526
723.163	0.6904
731.183	0.7246
739.204	0.7432
747.224	0.7491
755.245	0.7504
763.265	0.7484
771.285	0.7365
779.306	0.6969
787.326	0.5854
795.346	0.4423
803.367	0.6789
811.387	0.5882
819.408	0.4974
827.428	0.4449
835.448	0.4008
843.469	0.3577
851.489	0.1761
859.509	0.3409
867.53	0.609
875.55	0.7022
883.571	0.7399
891.591	0.737
899.611	0.7307
907.632	0.7181
915.652	0.6655
923.672	0.3815
931.693	0.4254
939.713	0.779
947.734	0.7725
955.754	0.7706
963.774	0.7967
971.795	0.7905
979.815	0.6927
987.835	0.6073
995.856	0.677
1003.88	0.779
1011.9	0.7749
1019.92	0.7649
1027.94	0.7538
1035.96	0.7371
1043.98	0.7329
1052	0.7331
1060.02	0.7285
1068.04	0.7097
1076.06	0.6818
1084.08	0.6492
1092.1	0.6109
1100.12	0.504
1108.14	0.5137
1116.16	0.513
1124.18	0.5097
1132.2	0.5583
1140.22	0.6281
1148.24	0.6821
1156.26	0.6952
1164.28	0.6768
1172.3	0.6462
1180.32	0.6057
1188.34	0.3688
1196.37	0.3823
1204.39	0.5168
1212.41	0.4384
1220.43	0.4472
1228.45	0.2684
1236.47	0.214
1244.49	0.563
1252.51	0.641
1260.53	0.6489
1268.55	0.6467
1276.57	0.6321
1284.59	0.5839
1292.61	0.5182
1300.63	0.4471
1308.65	0.2266
1316.67	0.2482
1324.69	0.267
1332.71	0.423
1340.73	0.6011
1348.75	0.6157
1356.77	0.5621
1364.79	0.4535
1372.81	0.3683
1380.83	0.2568
1388.85	0.3819
1396.87	0.5077
1404.89	0.5126
1412.92	0.4658
1420.94	0.3055
1428.96	0.2762
1436.98	0.2673
1445	0.5147
1453.02	0.5572
1461.04	0.5686
1469.06	0.5236
1477.08	0.5542
1485.1	0.5418
1493.12	0.4853
1501.14	0.4507
1509.16	0.3649
1517.18	0.3161
1525.2	0.2311
1533.22	0.0729
1541.24	0.0446
1549.26	0.0391
1557.28	0.0381
1565.3	0.0435
1573.32	0.1271
1581.34	0.1678
1589.36	0.1554
1597.38	0.1546
1605.4	0.1653
1613.42	0.1843
1621.45	0.2005
1629.47	0.1717
1637.49	0.1202
1645.51	0.0984
1653.53	0.1146
1661.55	0.1954
1669.57	0.3127
1677.59	0.4301
1685.61	0.5475
1693.63	0.6328
1701.65	0.6969
1709.67	0.7512
1717.69	0.7684
1725.71	0.7881
1733.73	0.791
1741.75	0.7967
1749.77	0.8052
1757.79	0.8211
1765.81	0.8268
1773.83	0.8253
1781.85	0.8184
1789.87	0.8026
1797.89	0.7802
1805.91	0.7757
1813.93	0.7984
1821.95	0.8357
1829.97	0.8471
1838	0.8475
1846.02	0.8504
1854.04	0.8562
1862.06	0.8549
1870.08	0.8523
1878.1	0.8475
1886.12	0.8405
1894.14	0.8328
1902.16	0.8258
1910.18	0.8245
1918.2	0.8245
1926.22	0.8248
1934.24	0.8234
1942.26	0.8202
1950.28	0.8148
1958.3	0.8094
1966.32	0.8051
1974.34	0.8016
1982.36	0.7988
1990.38	0.7958
1998.4	0.7937
2006.42	0.7913
2014.44	0.7882
2022.46	0.7844
2030.48	0.7804
2038.5	0.7762
2046.52	0.7722
2054.55	0.7682
2062.57	0.7634
2070.59	0.7583
2078.61	0.7531
2086.63	0.7482
2094.65	0.7437
2102.67	0.7393
2110.69	0.7349
2118.71	0.7307
2126.73	0.7266
2134.75	0.7234
2142.77	0.7202
2150.79	0.717
2158.81	0.7152
2166.83	0.7137
2174.85	0.7121
2182.87	0.7103
2190.89	0.7085
2198.91	0.7066
2206.93	0.7044
2214.95	0.7022
2222.97	0.7
2230.99	0.6978
2239.01	0.6957
2247.03	0.6935
2255.05	0.6914
2263.08	0.6885
2271.1	0.685
2279.12	0.6817
2287.14	0.6786
2295.16	0.6754
2303.18	0.6715
2311.2	0.6676
2319.22	0.6637
2327.24	0.6586
2335.26	0.6535
2343.28	0.6471
2351.3	0.6406
2359.32	0.6347
2367.34	0.632
2375.36	0.6315
2383.38	0.6303
2391.4	0.6263
2399.42	0.6193
2407.44	0.6198
2415.46	0.6192
2423.48	0.6157
2431.5	0.6098
2439.52	0.6034
2447.54	0.5957
2455.56	0.5876
2463.58	0.5797
2471.6	0.5704
2479.63	0.5665
2487.65	0.5656
2495.67	0.5571
2503.69	0.5436
2511.71	0.5294
2519.73	0.5146
2527.75	0.4983
2535.77	0.4921
2543.79	0.4919
2551.81	0.4946
2559.83	0.5065
2567.85	0.5088
2575.87	0.5066
2583.89	0.5005
2591.91	0.4939
2599.93	0.4887
2607.95	0.4858
2615.97	0.4776
2623.99	0.463
2632.01	0.4539
2640.03	0.4452
2648.05	0.4202
2656.07	0.403
2664.09	0.393
2672.11	0.3852
2680.13	0.3777
2688.16	0.3694
2696.18	0.3602
2704.2	0.3626
2712.22	0.3721
2720.24	0.3765
2728.26	0.3731
2736.28	0.3602
2744.3	0.342
2752.32	0.3266
2760.34	0.3175
2768.36	0.3059
2776.38	0.2827
2784.4	0.2675
2792.42	0.2579
2800.44	0.2564
2808.46	0.2604
2816.48	0.2725
2824.5	0.3038
2832.52	0.3713
2840.54	0.4041
2848.56	0.4128
2856.58	0.4027
2864.6	0.38
2872.62	0.3517
2880.64	0.3335
2888.66	0.314
2896.68	0.2917
2904.71	0.269
2912.73	0.2443
2920.75	0.2366
2928.77	0.2359
2936.79	0.2355
2944.81	0.2405
2952.83	0.2583
2960.85	0.2714
2968.87	0.2776
2976.89	0.2826
2984.91	0.3018
2992.93	0.334
3000.95	0.3453
3008.97	0.3388
3016.99	0.3094
3025.01	0.2657
3033.03	0.2469
3041.05	0.2571
3049.07	0.2636
3057.09	0.2627
3065.11	0.2584
3073.13	0.2505
3081.15	0.2459
3089.17	0.2871
3097.19	0.3402
3105.21	0.3481
3113.23	0.3471
3121.26	0.343
3129.28	0.3353
3137.3	0.322
3145.32	0.301
3153.34	0.2702
3161.36	0.2345
3169.38	0.2043
3177.4	0.2022
3185.42	0.2048
3193.44	0.2134
3201.46	0.2588
3209.48	0.3004
3217.5	0.3168
3225.52	0.3184
3233.54	0.3105
3241.56	0.2986
3249.58	0.2872
3257.6	0.2747
3265.62	0.262
3273.64	0.2453
3281.66	0.2272
3289.68	0.2084
3297.7	0.1944
3305.72	0.1811
3313.74	0.1751
3321.76	0.1719
3329.79	0.1744
3337.81	0.1831
3345.83	0.1907
3353.85	0.1989
3361.87	0.2243
3369.89	0.2703
3377.91	0.3037
3385.93	0.3208
3393.95	0.3285
3401.97	0.33
3409.99	0.3289
3418.01	0.3282
3426.03	0.3267
3434.05	0.3217
3442.07	0.3098
3450.09	0.2786
3458.11	0.2361
3466.13	0.192
3474.15	0.1786
3482.17	0.1988
3490.19	0.2877
3498.21	0.3195
3506.23	0.3381
3514.25	0.3477
3522.27	0.3582
3530.29	0.3706
3538.31	0.3889
3546.34	0.4075
3554.36	0.4457
3562.38	0.4786
3570.4	0.5001
3578.42	0.5367
3586.44	0.5562
3594.46	0.5712
3602.48	0.5907
3610.5	0.6104
3618.52	0.6253
3626.54	0.6355
3634.56	0.6447
3642.58	0.6533
3650.6	0.6584
3658.62	0.6622
3666.64	0.6627
3674.66	0.6627
3682.68	0.6615
3690.7	0.6603
3698.72	0.6578
3706.74	0.6552
3714.76	0.6531
3722.78	0.6511
3730.8	0.6438
3738.82	0.6318
3746.84	0.6289
3754.87	0.6281
3762.89	0.6278
3770.91	0.6278
3778.93	0.6279
3786.95	0.6262
3794.97	0.6235
3802.99	0.6176
