Infrared Spectrum: 2-DIMETHYLAMINOMETHYLENE-4-METHYL-3-PENTENOIC ACID, METHYL ESTER
Formula: C10 H17 N O2
CAS: 90978-52-2
Class: COBLENTZ
Instrument: Not specified, most likely a prism, grating, or hybrid spectrometer.
Sampling: TRANSMISSION
Resolution: 4
Origin: TENNESSEE EASTMAN COMPANY, RESEARCH LABORATORIES
MICROMETERS	TRANSMITTANCE
2.013	0.966
2.05287	0.966
2.09274	0.966
2.13261	0.965
2.17247	0.961
2.21234	0.903
2.25221	0.875
2.29208	0.876
2.33195	0.885
2.37182	0.893
2.41169	0.905
2.45155	0.906
2.49142	0.91
2.53129	0.918
2.57116	0.925
2.61103	0.925
2.6509	0.928
2.69077	0.928
2.73064	0.923
2.7705	0.908
2.81037	0.908
2.85024	0.905
2.89011	0.908
2.92998	0.908
2.96985	0.9
3.00972	0.905
3.04958	0.908
3.08945	0.908
3.12932	0.905
3.16919	0.881
3.20906	0.836
3.24893	0.787
3.2888	0.575
3.32866	0.329
3.36853	0.186
3.4084	0.164
3.44827	0.301
3.48814	0.415
3.52801	0.54
3.56788	0.747
3.60775	0.823
3.64761	0.83
3.68748	0.856
3.72735	0.865
3.76722	0.881
3.80709	0.895
3.84696	0.898
3.88683	0.9
3.92669	0.898
3.96656	0.898
4.00643	0.891
4.0463	0.88
4.08617	0.885
4.12604	0.888
4.16591	0.89
4.20577	0.901
4.24564	0.905
4.28551	0.905
4.32538	0.901
4.36525	0.901
4.40512	0.903
4.44499	0.9
4.48486	0.9
4.52472	0.9
4.56459	0.9
4.60446	0.9
4.64433	0.888
4.6842	0.871
4.72407	0.878
4.76394	0.878
4.8038	0.873
4.84367	0.871
4.88354	0.866
4.92341	0.863
4.96328	0.873
5.00315	0.875
5.04302	0.871
5.08288	0.87
5.12275	0.868
5.16262	0.863
5.20249	0.86
5.24236	0.858
5.28223	0.853
5.3221	0.853
5.36197	0.86
5.40183	0.86
5.4417	0.841
5.48157	0.841
5.52144	0.846
5.56131	0.83
5.60118	0.801
5.64105	0.76
5.68091	0.69
5.72078	0.562
5.76065	0.472
5.80052	0.351
5.84039	0.219
5.88026	0.051
5.92013	0.026
5.95999	0.056
5.99986	0.211
6.03973	0.289
6.0796	0.274
6.11947	0.126
6.15934	0.038
6.19921	0.019
6.23907	0.018
6.27894	0.034
6.31881	0.183
6.35868	0.364
6.39855	0.489
6.43842	0.519
6.47829	0.555
6.51816	0.57
6.55802	0.602
6.59789	0.608
6.63776	0.567
6.67763	0.49
6.7175	0.452
6.75737	0.409
6.79724	0.329
6.8371	0.226
6.87697	0.151
6.91684	0.104
6.95671	0.068
6.99658	0.146
7.03645	0.286
7.07632	0.339
7.11618	0.211
7.15605	0.149
7.19592	0.138
7.23579	0.166
7.27566	0.214
7.31553	0.386
7.3554	0.474
7.39527	0.474
7.43513	0.427
7.475	0.397
7.51487	0.462
7.55474	0.53
7.59461	0.522
7.63448	0.445
7.67435	0.284
7.71421	0.129
7.75408	0.061
7.79395	0.041
7.83382	0.036
7.87369	0.039
7.91356	0.096
7.95343	0.174
7.99329	0.214
8.03316	0.227
8.07303	0.193
8.1129	0.111
8.15277	0.048
8.19264	0.034
8.23251	0.034
8.27238	0.049
8.31224	0.078
8.35211	0.068
8.39198	0.059
8.43185	0.109
8.47172	0.224
8.51159	0.307
8.55146	0.339
8.59132	0.344
8.63119	0.342
8.67106	0.331
8.71093	0.252
8.7508	0.183
8.79067	0.146
8.83054	0.153
8.8704	0.224
8.91027	0.267
8.95014	0.274
8.99001	0.242
9.02988	0.196
9.06975	0.144
9.10962	0.074
9.14948	0.038
9.18935	0.031
9.22922	0.029
9.26909	0.034
9.30896	0.081
9.34883	0.119
9.3887	0.123
9.42857	0.109
9.46843	0.089
9.5083	0.161
9.54817	0.304
9.58804	0.434
9.62791	0.514
9.66778	0.569
9.70765	0.61
9.74751	0.638
9.78738	0.663
9.82725	0.672
9.86712	0.675
9.90699	0.675
9.94686	0.67
9.98673	0.665
10.0266	0.605
10.0665	0.507
10.1063	0.435
10.1462	0.432
10.1861	0.519
10.2259	0.595
10.2658	0.633
10.3057	0.663
10.3455	0.675
10.3854	0.677
10.4253	0.652
10.4651	0.607
10.505	0.577
10.5449	0.542
10.5848	0.505
10.6246	0.482
10.6645	0.477
10.7044	0.48
10.7442	0.517
10.7841	0.56
10.824	0.617
10.8638	0.678
10.9037	0.703
10.9436	0.715
10.9834	0.685
11.0233	0.61
11.0632	0.55
11.103	0.525
11.1429	0.489
11.1828	0.47
11.2227	0.52
11.2625	0.589
11.3024	0.657
11.3423	0.715
11.3821	0.745
11.422	0.76
11.4619	0.763
11.5017	0.748
11.5416	0.69
11.5815	0.65
11.6213	0.643
11.6612	0.627
11.7011	0.56
11.7409	0.502
11.7808	0.472
11.8207	0.472
11.8606	0.497
11.9004	0.537
11.9403	0.555
11.9802	0.57
12.02	0.592
12.0599	0.607
12.0998	0.61
12.1396	0.6
12.1795	0.59
12.2194	0.612
12.2592	0.65
12.2991	0.677
12.339	0.69
12.3788	0.708
12.4187	0.725
12.4586	0.738
12.4985	0.742
12.5383	0.743
12.5782	0.742
12.6181	0.735
12.6579	0.733
12.6978	0.733
12.7377	0.737
12.7775	0.737
12.8174	0.733
12.8573	0.692
12.8971	0.603
12.937	0.465
12.9769	0.326
13.0167	0.234
13.0566	0.229
13.0965	0.307
13.1363	0.437
13.1762	0.59
13.2161	0.657
13.256	0.673
13.2958	0.662
13.3357	0.643
13.3756	0.662
13.4154	0.697
13.4553	0.725
13.4952	0.742
13.535	0.752
13.5749	0.757
13.6148	0.765
13.6546	0.77
13.6945	0.772
13.7344	0.775
13.7742	0.775
13.8141	0.773
13.854	0.775
13.8939	0.775
13.9337	0.775
13.9736	0.773
14.0135	0.773
14.0533	0.772
14.0932	0.773
14.1331	0.773
14.1729	0.773
14.2128	0.773
14.2527	0.772
14.2925	0.772
14.3324	0.77
14.3723	0.768
14.4121	0.763
14.452	0.76
14.4919	0.755
14.5318	0.75
14.5716	0.75
14.6115	0.743
14.6514	0.737
14.6912	0.735
14.7311	0.733
14.771	0.723
14.8108	0.72
14.8507	0.718
14.8906	0.717
14.9304	0.713
14.9703	0.708
15.0102	0.705
15.05	0.698
15.0899	0.695
15.1298	0.692
15.1696	0.685
15.2095	0.682
15.2494	0.675
15.2893	0.672
15.3291	0.67
15.369	0.667
15.4089	0.665
15.4487	0.662
15.4886	0.657
15.5285	0.653
15.5683	0.652
15.6082	0.648
15.6481	0.65
15.6879	0.645
15.7278	0.64
15.7677	0.64
15.8075	0.637
15.8474	0.633
15.8873	0.628
15.9272	0.627
15.967	0.623
