Infrared Spectrum: 4-[(HEXYLSULFONYL)METHYL]-4-THIAZOLINE-2-THIONE
Formula: C10 H17 N O2 S3
CAS: 90978-85-1
State: SOLID (KBr PELLET)
Melting point: 160-161 C
Class: COBLENTZ
Instrument: Not specified, most likely a prism, grating, or hybrid spectrometer.
Sampling: TRANSMISSION
Resolution: 4
Origin: EASTMAN KODAK COMPANY, RESEARCH LABORATORIES, ROCHESTER, N.Y.
MICROMETERS	TRANSMITTANCE
2.013	0.695
2.05291	0.702
2.09281	0.7
2.13272	0.702
2.17262	0.707
2.21253	0.71
2.25243	0.707
2.29234	0.708
2.33225	0.712
2.37215	0.718
2.41206	0.73
2.45196	0.741
2.49187	0.738
2.53177	0.738
2.57168	0.745
2.61159	0.751
2.65149	0.756
2.6914	0.764
2.7313	0.758
2.77121	0.746
2.81111	0.699
2.85102	0.667
2.89093	0.629
2.93083	0.623
2.97074	0.634
3.01064	0.699
3.05055	0.728
3.09045	0.728
3.13036	0.715
3.17027	0.675
3.21017	0.593
3.25008	0.325
3.28998	0.315
3.32989	0.343
3.36979	0.296
3.4097	0.213
3.44961	0.228
3.48951	0.215
3.52942	0.264
3.56932	0.481
3.60923	0.552
3.64913	0.603
3.68904	0.575
3.72895	0.626
3.76885	0.718
3.80876	0.73
3.84866	0.746
3.88857	0.773
3.92847	0.777
3.96838	0.766
4.00829	0.774
4.04819	0.802
4.0881	0.81
4.128	0.812
4.16791	0.807
4.20781	0.807
4.24772	0.817
4.28763	0.835
4.32753	0.848
4.36744	0.832
4.40734	0.83
4.44725	0.843
4.48715	0.843
4.52706	0.845
4.56697	0.853
4.60687	0.851
4.64678	0.853
4.68668	0.853
4.72659	0.853
4.76649	0.855
4.8064	0.865
4.84631	0.87
4.88621	0.871
4.92612	0.868
4.96602	0.871
5.00593	0.875
5.04583	0.875
5.08574	0.878
5.12565	0.878
5.16555	0.881
5.20546	0.876
5.24536	0.884
5.28527	0.894
5.32517	0.898
5.36508	0.888
5.40499	0.898
5.44489	0.898
5.4848	0.899
5.5247	0.901
5.56461	0.896
5.60451	0.898
5.64442	0.896
5.68433	0.898
5.72423	0.893
5.76414	0.884
5.80404	0.876
5.84395	0.86
5.88385	0.875
5.92376	0.878
5.96367	0.883
6.00357	0.889
6.04348	0.879
6.08338	0.865
6.12329	0.853
6.16319	0.84
6.2031	0.832
6.24301	0.84
6.28291	0.791
6.32282	0.417
6.36272	0.605
6.40263	0.807
6.44253	0.802
6.48244	0.814
6.52235	0.83
6.56225	0.807
6.60216	0.804
6.64206	0.802
6.68197	0.822
6.72187	0.82
6.76178	0.804
6.80169	0.633
6.84159	0.264
6.8815	0.213
6.9214	0.44
6.96131	0.605
7.00121	0.674
7.04112	0.764
7.08103	0.8
7.12093	0.756
7.16084	0.549
7.20074	0.514
7.24065	0.723
7.28055	0.728
7.32046	0.779
7.36036	0.797
7.40027	0.712
7.44018	0.541
7.48008	0.661
7.51999	0.703
7.55989	0.49
7.5998	0.233
7.6397	0.101
7.67961	0.133
7.71952	0.238
7.75942	0.315
7.79933	0.34
7.83923	0.376
7.87914	0.549
7.91904	0.458
7.95895	0.376
7.99886	0.305
8.03876	0.138
8.07867	0.207
8.11857	0.43
8.15848	0.6
8.19838	0.695
8.23829	0.726
8.2782	0.748
8.3181	0.784
8.35801	0.802
8.39791	0.796
8.43782	0.812
8.47772	0.81
8.51763	0.761
8.55754	0.674
8.59744	0.444
8.63735	0.118
8.67725	0.218
8.71716	0.5
8.75706	0.597
8.79697	0.603
8.83688	0.508
8.87678	0.307
8.91669	0.026
8.95659	0.184
8.9965	0.319
9.0364	0.455
9.07631	0.585
9.11622	0.662
9.15612	0.641
9.19603	0.595
9.23593	0.636
9.27584	0.656
9.31574	0.337
9.35565	0.105
9.39556	0.248
9.43546	0.399
9.47537	0.491
9.51527	0.575
9.55518	0.621
9.59508	0.648
9.63499	0.674
9.6749	0.715
9.7148	0.736
9.75471	0.748
9.79461	0.748
9.83452	0.741
9.87442	0.761
9.91433	0.789
9.95424	0.8
9.99414	0.802
10.034	0.812
10.074	0.819
10.1139	0.812
10.1538	0.812
10.1937	0.817
10.2336	0.835
10.2735	0.838
10.3134	0.838
10.3533	0.804
10.3932	0.733
10.4331	0.59
10.473	0.379
10.5129	0.375
10.5528	0.61
10.5927	0.692
10.6326	0.75
10.6725	0.789
10.7124	0.802
10.7524	0.819
10.7923	0.814
10.8322	0.802
10.8721	0.819
10.912	0.828
10.9519	0.827
10.9918	0.827
11.0317	0.827
11.0716	0.822
11.1115	0.791
11.1514	0.682
11.1913	0.49
11.2312	0.463
11.2711	0.592
11.311	0.687
11.3509	0.731
11.3908	0.773
11.4307	0.797
11.4707	0.804
11.5106	0.819
11.5505	0.815
11.5904	0.822
11.6303	0.822
11.6702	0.832
11.7101	0.835
11.75	0.832
11.7899	0.825
11.8298	0.824
11.8697	0.802
11.9096	0.773
11.9495	0.718
11.9894	0.718
12.0293	0.761
12.0692	0.773
12.1091	0.753
12.1491	0.72
12.189	0.659
12.2289	0.578
12.2688	0.434
12.3087	0.309
12.3486	0.269
12.3885	0.307
12.4284	0.399
12.4683	0.503
12.5082	0.565
12.5481	0.62
12.588	0.633
12.6279	0.659
12.6678	0.672
12.7077	0.674
12.7476	0.677
12.7875	0.652
12.8274	0.633
12.8674	0.621
12.9073	0.611
12.9472	0.615
12.9871	0.62
13.027	0.629
13.0669	0.638
13.1068	0.648
13.1467	0.646
13.1866	0.643
13.2265	0.636
13.2664	0.643
13.3063	0.677
13.3462	0.703
13.3861	0.72
13.426	0.746
13.4659	0.751
13.5058	0.763
13.5457	0.773
13.5857	0.779
13.6256	0.776
13.6655	0.763
13.7054	0.751
13.7453	0.741
13.7852	0.753
13.8251	0.779
13.865	0.782
13.9049	0.787
13.9448	0.794
13.9847	0.812
14.0246	0.807
14.0645	0.797
14.1044	0.789
14.1443	0.75
14.1842	0.68
14.2241	0.539
14.2641	0.394
14.304	0.33
14.3439	0.345
14.3838	0.43
14.4237	0.539
14.4636	0.616
14.5035	0.657
14.5434	0.694
14.5833	0.707
14.6232	0.722
14.6631	0.728
14.703	0.733
14.7429	0.738
14.7828	0.738
14.8227	0.733
14.8626	0.73
14.9025	0.73
14.9424	0.753
14.9824	0.694
15.0223	0.651
15.0622	0.68
15.1021	0.687
15.142	0.651
15.1819	0.572
15.2218	0.463
15.2617	0.449
15.3016	0.495
15.3415	0.562
15.3814	0.592
15.4213	0.606
15.4612	0.615
15.5011	0.628
15.541	0.625
15.5809	0.634
15.6208	0.636
15.6608	0.636
15.7007	0.639
15.7406	0.641
15.7805	0.639
15.8204	0.634
15.8603	0.626
15.9002	0.625
15.9401	0.626
15.98	0.621
