Infrared Spectrum: A^1,A^3-MESITYLLENEDIOL, 2-HYDROXY-
Formula: C9 H12 O3
CAS: 91-04-3
State: SOLID (KBr PELLET)
Melting point: 128 C
Class: COBLENTZ
Instrument: Not specified, most likely a prism, grating, or hybrid spectrometer.
Sampling: TRANSMISSION
Resolution: 4
Origin: TENNESSEE EASTMAN COMPANY, RESEARCH LABORATORIES
MICROMETERS	TRANSMITTANCE
2.014	0.708
2.05496	0.716
2.09591	0.725
2.13687	0.739
2.17782	0.742
2.21878	0.749
2.25974	0.753
2.30069	0.759
2.34165	0.773
2.3826	0.78
2.42356	0.79
2.46452	0.792
2.50547	0.795
2.54643	0.799
2.58738	0.801
2.62834	0.802
2.66929	0.809
2.71025	0.807
2.75121	0.77
2.79216	0.73
2.83312	0.651
2.87407	0.435
2.91503	0.106
2.95599	0.137
2.99694	0.087
3.0379	0.118
3.07885	0.164
3.11981	0.173
3.16077	0.19
3.20172	0.276
3.24268	0.385
3.28363	0.481
3.32459	0.569
3.36555	0.502
3.4065	0.466
3.44746	0.437
3.48841	0.651
3.52937	0.725
3.57033	0.794
3.61128	0.816
3.65224	0.819
3.69319	0.83
3.73415	0.825
3.77511	0.823
3.81606	0.826
3.85702	0.843
3.89797	0.873
3.93893	0.883
3.97988	0.873
4.02084	0.873
4.0618	0.893
4.10275	0.893
4.14371	0.893
4.18466	0.883
4.22562	0.885
4.26658	0.89
4.30753	0.914
4.34849	0.936
4.38944	0.943
4.4304	0.943
4.47136	0.95
4.51231	0.948
4.55327	0.95
4.59422	0.951
4.63518	0.955
4.67614	0.948
4.71709	0.953
4.75805	0.955
4.799	0.962
4.83996	0.962
4.88092	0.962
4.92187	0.962
4.96283	0.962
5.00378	0.96
5.04474	0.958
5.0857	0.953
5.12665	0.953
5.16761	0.958
5.20856	0.962
5.24952	0.962
5.29047	0.963
5.33143	0.962
5.37239	0.963
5.41334	0.96
5.4543	0.96
5.49525	0.96
5.53621	0.955
5.57717	0.943
5.61812	0.945
5.65908	0.902
5.70003	0.921
5.74099	0.922
5.78195	0.933
5.8229	0.922
5.86386	0.921
5.90481	0.915
5.94577	0.902
5.98673	0.897
6.02768	0.895
6.06864	0.878
6.10959	0.885
6.15055	0.862
6.19151	0.811
6.23246	0.816
6.27342	0.886
6.31437	0.895
6.35533	0.885
6.39629	0.871
6.43724	0.859
6.4782	0.85
6.51915	0.838
6.56011	0.826
6.60106	0.807
6.64202	0.723
6.68298	0.233
6.72393	0.499
6.76489	0.133
6.80584	0.274
6.8468	0.49
6.88776	0.526
6.92871	0.519
6.96967	0.507
7.01062	0.473
7.05158	0.528
7.09254	0.641
7.13349	0.704
7.17445	0.725
7.2154	0.682
7.25636	0.545
7.29732	0.598
7.33827	0.72
7.37923	0.728
7.42018	0.656
7.46114	0.626
7.5021	0.584
7.54305	0.478
7.58401	0.514
7.62496	0.605
7.66592	0.708
7.70688	0.79
7.74783	0.816
7.78879	0.818
7.82974	0.718
7.8707	0.445
7.91165	0.536
7.95261	0.722
7.99357	0.641
8.03452	0.644
8.07548	0.668
8.11643	0.631
8.15739	0.519
8.19835	0.25
8.2393	0.094
8.28026	0.099
8.32121	0.188
8.36217	0.361
8.40313	0.53
8.44408	0.631
8.48504	0.684
8.52599	0.727
8.56695	0.739
8.60791	0.742
8.64886	0.744
8.68982	0.801
8.73077	0.806
8.77173	0.821
8.81269	0.83
8.85364	0.837
8.8946	0.843
8.93555	0.849
8.97651	0.854
9.01746	0.855
9.05842	0.861
9.09938	0.859
9.14033	0.859
9.18129	0.849
9.22224	0.813
9.2632	0.73
9.30416	0.456
9.34511	0.114
9.38607	0.164
9.42702	0.543
9.46798	0.715
9.50894	0.763
9.54989	0.777
9.59085	0.794
9.6318	0.801
9.67276	0.801
9.71372	0.73
9.75467	0.56
9.79563	0.399
9.83658	0.355
9.87754	0.253
9.9185	0.229
9.95945	0.3
10.0004	0.284
10.0414	0.567
10.0823	0.686
10.1233	0.548
10.1642	0.506
10.2052	0.588
10.2461	0.708
10.2871	0.794
10.3281	0.787
10.369	0.583
10.41	0.516
10.4509	0.739
10.4919	0.831
10.5328	0.873
10.5738	0.898
10.6147	0.91
10.6557	0.919
10.6967	0.921
10.7376	0.873
10.7786	0.746
10.8195	0.543
10.8605	0.703
10.9014	0.837
10.9424	0.893
10.9833	0.922
11.0243	0.936
11.0653	0.933
11.1062	0.866
11.1472	0.91
11.1881	0.945
11.2291	0.951
11.27	0.955
11.311	0.953
11.352	0.936
11.3929	0.893
11.4339	0.756
11.4748	0.368
11.5158	0.24
11.5567	0.634
11.5977	0.823
11.6386	0.89
11.6796	0.926
11.7206	0.946
11.7615	0.958
11.8025	0.962
11.8434	0.963
11.8844	0.963
11.9253	0.965
11.9663	0.967
12.0072	0.972
12.0482	0.972
12.0892	0.972
12.1301	0.97
12.1711	0.969
12.212	0.967
12.253	0.963
12.2939	0.962
12.3349	0.957
12.3759	0.95
12.4168	0.948
12.4578	0.938
12.4987	0.931
12.5397	0.903
12.5806	0.867
12.6216	0.855
12.6625	0.871
12.7035	0.895
12.7445	0.914
12.7854	0.919
12.8264	0.921
12.8673	0.921
12.9083	0.921
12.9492	0.915
12.9902	0.909
13.0311	0.897
13.0721	0.869
13.1131	0.789
13.154	0.679
13.195	0.658
13.2359	0.68
13.2769	0.694
13.3178	0.699
13.3588	0.698
13.3998	0.687
13.4407	0.686
13.4817	0.682
13.5226	0.682
13.5636	0.684
13.6045	0.686
13.6455	0.691
13.6864	0.701
13.7274	0.704
13.7684	0.711
13.8093	0.716
13.8503	0.722
13.8912	0.73
13.9322	0.734
13.9731	0.74
14.0141	0.749
14.055	0.751
14.096	0.753
14.137	0.754
14.1779	0.754
14.2189	0.754
14.2598	0.754
14.3008	0.747
14.3417	0.747
14.3827	0.742
14.4236	0.739
14.4646	0.737
14.5056	0.73
14.5465	0.723
14.5875	0.72
14.6284	0.715
14.6694	0.706
14.7103	0.703
14.7513	0.691
14.7923	0.679
14.8332	0.67
14.8742	0.653
14.9151	0.639
14.9561	0.62
14.997	0.579
15.038	0.55
15.0789	0.533
15.1199	0.531
15.1609	0.524
15.2018	0.526
15.2428	0.531
15.2837	0.55
15.3247	0.555
15.3656	0.566
15.4066	0.574
15.4475	0.584
15.4885	0.598
15.5295	0.607
15.5704	0.615
15.6114	0.622
15.6523	0.627
15.6933	0.636
15.7342	0.638
15.7752	0.643
15.8162	0.644
15.8571	0.644
15.8981	0.643
15.939	0.643
15.98	0.643
