Infrared Spectrum: Diphenylmethanol
Formula: C 13 H 12 O
CAS: 91-01-0
State: gas
Instrument: HP-GC/MS/IRD
Origin: NIST Mass Spectrometry Data Center
1/CM	ABSORBANCE
550	0.0009747
562	0.0001503
574	0.0001044
586	0.0006336
598	0.0028863
610	0.0012222
622	0.0007398
634	0.0005076
646	0.0011124
658	0.0014409
670	0.0017235
682	0.0034614
694	0.0082737
706	0.0070362
718	0.0034632
730	0.0040887
742	0.0043839
754	0.0039456
766	0.0026082
778	0.0009252
790	0.0004599
802	0.0003087
814	0.0003087
826	0.0003384
838	0.0006048
850	0.0007488
862	0.0004086
874	0.0002439
886	0.0002934
898	0.0004014
910	0.0005787
922	0.000432
934	0.0003177
946	0.0003024
958	0.0003681
970	0.0005229
982	0.0008613
994	0.0018018
1006	0.0041571
1018	0.0062856
1030	0.0053307
1042	0.0028269
1054	0.0012825
1066	0.0008766
1078	0.0008361
1090	0.0005976
1102	0.0004653
1114	0.0003591
1126	0.000342
1138	0.0004383
1150	0.0008721
1162	0.0018819
1174	0.0033138
1186	0.0029358
1198	0.0015093
1210	0.0012177
1222	0.0011079
1234	0.0009504
1246	0.0008577
1258	0.0010836
1270	0.0014436
1282	0.0016641
1294	0.0018045
1306	0.001881
1318	0.0018783
1330	0.0018072
1342	0.0017955
1354	0.0019512
1366	0.0016857
1378	0.0011205
1390	0.0006939
1402	0.0005112
1414	0.0004671
1426	0.000675
1438	0.0012726
1450	0.0021753
1462	0.0015651
1474	0.0008658
1486	0.001728
1498	0.0021735
1510	0.0004788
1522	0.0002304
1534	0.0002484
1546	0.0002268
1558	0.0001953
1570	0.0002529
1582	0.0004716
1594	0.0009567
1606	0.0008325
1618	0.0002502
1630	0.0001179
1642	8.91e-05
1654	0.000108
1666	0.0001305
1678	0.0001566
1690	9.81e-05
1702	7.11e-05
1714	5.85e-05
1726	0.0001035
1738	0.0001539
1750	0.0002016
1762	0.0001782
1774	0.0001746
1786	0.0002664
1798	0.0005337
1810	0.0003303
1822	0.0001692
1834	9.54e-05
1846	8.46e-05
1858	0.0001458
1870	0.0002781
1882	0.0003654
1894	0.000378
1906	0.0001917
1918	0.0001512
1930	0.0002853
1942	0.0004842
1954	0.0004941
1966	0.0002529
1978	7.65e-05
1990	8.73e-05
2002	6.93e-05
2014	6.48e-05
2026	7.47e-05
2038	8.37e-05
2050	7.02e-05
2062	6.66e-05
2074	5.94e-05
2086	6.21e-05
2098	6.48e-05
2110	2.34e-05
2122	4.59e-05
2134	3.6e-05
2146	4.23e-05
2158	3.33e-05
2170	4.68e-05
2182	5.31e-05
2194	4.95e-05
2206	5.4e-05
2218	4.41e-05
2230	2.97e-05
2242	2.52e-05
2254	6.57e-05
2266	5.67e-05
2278	5.22e-05
2290	5.04e-05
2302	5.58e-05
2314	0.0001224
2326	0.0001008
2338	9.63e-05
2350	7.56e-05
2362	8.64e-05
2374	7.2e-05
2386	5.85e-05
2398	4.95e-05
2410	5.4e-05
2422	6.93e-05
2434	6.03e-05
2446	5.58e-05
2458	5.76e-05
2470	5.13e-05
2482	5.49e-05
2494	3.33e-05
2506	5.31e-05
2518	4.41e-05
2530	7.56e-05
2542	8.01e-05
2554	7.74e-05
2566	8.28e-05
2578	9.09e-05
2590	9.45e-05
2602	6.84e-05
2614	0.0001134
2626	8.73e-05
2638	0.0001278
2650	7.65e-05
2662	7.83e-05
2674	6.57e-05
2686	7.02e-05
2698	6.75e-05
2710	8.28e-05
2722	8.46e-05
2734	9.45e-05
2746	0.0001278
2758	8.28e-05
2770	0.0001125
2782	0.0001395
2794	0.0001449
2806	0.0001251
2818	0.0001395
2830	0.0002394
2842	0.0003105
2854	0.0004977
2866	0.000882
2878	0.0014283
2890	0.0015543
2902	0.0010809
2914	0.0006309
2926	0.0003726
2938	0.0002421
2950	0.0001998
2962	0.0002088
2974	0.0001602
2986	0.0002898
2998	0.0004482
3010	0.0010215
3022	0.002493
3034	0.0043893
3046	0.0035568
3058	0.0036585
3070	0.0060885
3082	0.0043443
3094	0.0027504
3106	0.0015885
3118	0.00072
3130	0.0003033
3142	0.000189
3154	0.0001656
3166	0.0001746
3178	0.0001341
3190	0.0001188
3202	5.49e-05
3214	2.7e-05
3226	6.39e-05
3238	2.88e-05
3250	0.000108
3262	6.93e-05
3274	4.68e-05
3286	3.51e-05
3298	3.06e-05
3310	5.49e-05
3322	7.02e-05
3334	5.85e-05
3346	7.2e-05
3358	3.6e-05
3370	6.84e-05
3382	9.72e-05
3394	8.64e-05
3406	9e-05
3418	0.0001233
3430	6.93e-05
3442	4.68e-05
3454	6.12e-05
3466	2.25e-05
3478	5.85e-05
3490	2.79e-05
3502	3.15e-05
3514	2.79e-05
3526	4.95e-05
3538	6.57e-05
3550	3.87e-05
3562	9e-06
3574	5.4e-05
3586	5.22e-05
3598	8.01e-05
3610	0.0001638
3622	0.0002772
3634	0.00108
3646	0.0019692
3658	0.0009837
3670	0.0002988
3682	0.0001665
3694	7.56e-05
3706	2.07e-05
3718	0.0001089
3730	0.0001053
3742	6.93e-05
3754	4.05e-05
3766	3.78e-05
3778	3.33e-05
3790	5.22e-05
3802	6.93e-05
3814	4.32e-05
3826	5.49e-05
3838	7.2e-05
