Infrared Spectrum: Quinoxaline
Formula: C 8 H 6 N 2
CAS: 91-19-0
State: gas
Origin: EPA-IR VAPOR PHASE LIBRARY
1/CM	ABSORBANCE
549.8	0.0006641
559.445	0.0007849
569.09	0.001208
578.734	0.0009506
588.379	0.002638
598.024	0.005008
607.669	0.005088
617.313	0.001538
626.958	0.000953
636.603	0.0006991
646.248	0.0006619
655.893	0.000983
665.537	0.0006849
675.182	0.0005975
684.827	0.0007537
694.472	0.0009228
704.116	0.0009931
713.761	0.001258
723.406	0.002888
733.051	0.013938
742.695	0.036488
752.34	0.086828
761.985	0.044268
771.63	0.021468
781.275	0.004678
790.919	0.001788
800.564	0.001288
810.209	0.0009544
819.854	0.001518
829.498	0.002278
839.143	0.004658
848.788	0.013088
858.433	0.022878
868.078	0.029568
877.722	0.017318
887.367	0.006128
897.012	0.001498
906.657	0.0008186
916.301	0.0011398
925.946	0.003538
935.591	0.010918
945.236	0.019718
954.88	0.020468
964.525	0.011398
974.17	0.004448
983.815	0.001508
993.46	0.001608
1003.1	0.006078
1012.75	0.034838
1022.39	0.034388
1032.04	0.019118
1041.68	0.002968
1051.33	0.0011209
1060.97	0.0005922
1070.62	0.0008461
1080.26	0.001388
1089.91	0.003628
1099.55	0.004208
1109.2	0.005838
1118.84	0.009858
1128.49	0.009488
1138.13	0.007388
1147.78	0.002838
1157.42	0.0007048
1167.07	0.0004762
1176.71	0.0007232
1186.36	0.002318
1196	0.003908
1205.64	0.004428
1215.29	0.003278
1224.93	0.002108
1234.58	0.001378
1244.22	0.0009923
1253.87	0.0007536
1263.51	0.001018
1273.16	0.001418
1282.8	0.001848
1292.45	0.001738
1302.09	0.000946
1311.74	0.0007109
1321.38	0.001218
1331.03	0.004228
1340.67	0.007898
1350.32	0.011778
1359.96	0.016978
1369.61	0.015908
1379.25	0.008188
1388.9	0.002568
1398.54	0.002268
1408.18	0.003508
1417.83	0.003468
1427.47	0.002598
1437.12	0.003028
1446.76	0.003488
1456.41	0.003438
1466.05	0.004208
1475.7	0.009168
1485.34	0.026278
1494.99	0.030938
1504.63	0.019718
1514.28	0.002518
1523.92	0.001378
1533.57	0.001438
1543.21	0.001578
1552.86	0.002458
1562.5	0.004718
1572.15	0.004628
1581.79	0.002218
1591.44	0.0011064
1601.08	0.001518
1610.73	0.002568
1620.37	0.003438
1630.01	0.002728
1639.66	0.001648
1649.3	0.0009179
1658.95	0.0009824
1668.59	0.0007826
1678.24	0.0006681
1687.88	0.0007775
1697.53	0.001628
1707.17	0.002648
1716.82	0.002958
1726.46	0.002238
1736.11	0.001818
1745.75	0.001598
1755.4	0.001668
1765.04	0.001768
1774.69	0.001578
1784.33	0.0011107
1793.98	0.0008636
1803.62	0.001398
1813.27	0.002338
1822.91	0.003048
1832.55	0.002998
1842.2	0.002518
1851.84	0.002038
1861.49	0.001298
1871.13	0.0005142
1880.78	0.0003866
1890.42	0.0005429
1900.07	0.0011181
1909.71	0.002228
1919.36	0.004578
1929	0.005788
1938.65	0.004678
1948.29	0.003098
1957.94	0.002638
1967.58	0.001838
1977.23	0.0007625
1986.87	0.0006056
1996.52	0.00053
2006.16	0.0007017
2015.81	0.0011749
2025.45	0.001378
2035.1	0.001248
2044.74	0.0008388
2054.38	0.0005116
2064.03	0.000468
2073.67	0.000478
2083.32	0.0004524
2092.96	0.0005328
2102.61	0.0005288
2112.25	0.0006125
2121.9	0.0006382
2131.54	0.0005656
2141.19	0.0005566
2150.83	0.0005474
2160.48	0.0004164
2170.12	0.0003694
2179.77	0.0004215
2189.41	0.000309
2199.06	0.0004015
2208.7	0.0004127
2218.35	0.0004959
2227.99	0.0005638
2237.64	0.0004779
2247.28	0.0006262
2256.92	0.0007093
2266.57	0.0006083
2276.21	0.000541
2285.86	0.000651
2295.5	0.0007066
2305.15	0.0009535
2314.79	0.0010906
2324.44	0.0009464
2334.08	0.0008397
2343.73	0.000526
2353.37	0.0004928
2363.02	0.0004011
2372.66	0.0004058
2382.31	0.0005082
2391.95	0.0005033
2401.6	0.0005083
2411.24	0.0004194
2420.89	0.0004672
2430.53	0.0004304
2440.18	0.0005383
2449.82	0.0005914
2459.47	0.0005122
2469.11	0.0003502
2478.75	0.0004865
2488.4	0.0005239
2498.04	0.0005524
2507.69	0.0005195
2517.33	0.0005079
2526.98	0.0004747
2536.62	0.000606
2546.27	0.0004829
2555.91	0.0005628
2565.56	0.000604
2575.2	0.0005581
2584.85	0.0003762
2594.49	0.0003667
2604.14	0.000413
2613.78	0.0004938
2623.43	0.0004331
2633.07	0.0003505
2642.72	0.00023947
2652.36	0.0003614
2662.01	0.0003421
2671.65	0.00023395
2681.29	0.00026332
2690.94	0.0003092
2700.58	0.0003399
2710.23	0.0004814
2719.87	0.0003972
2729.52	0.0003507
2739.16	0.0004786
2748.81	0.00025413
2758.45	0.0003365
2768.1	0.0002932
2777.74	0.000392
2787.39	0.0004138
2797.03	0.00027819
2806.68	0.0001742
2816.32	0.0002948
2825.97	0.0003827
2835.61	0.0003666
2845.26	0.0005246
2854.9	0.0004702
2864.55	0.0004062
2874.19	0.0006162
2883.84	0.0006778
2893.48	0.0009242
2903.12	0.001328
2912.77	0.001528
2922.41	0.001498
2932.06	0.002138
2941.7	0.002558
2951.35	0.001908
2960.99	0.001658
2970.64	0.001938
2980.28	0.002488
2989.93	0.002848
2999.57	0.004328
3009.22	0.008628
3018.86	0.016158
3028.51	0.026598
3038.15	0.031898
3047.8	0.029528
3057.44	0.024368
3067.09	0.026928
3076.73	0.029018
3086.38	0.025498
3096.02	0.015118
3105.67	0.007368
3115.31	0.003278
3124.95	0.001778
3134.6	0.0009605
3144.24	0.0007592
3153.89	0.0007078
3163.53	0.0005704
3173.18	0.0004995
3182.82	0.0004791
3192.47	0.00027489
3202.11	0.0002763
3211.76	0.0004227
3221.4	0.0004148
3231.05	0.0004869
3240.69	0.0004189
3250.34	0.0003961
3259.98	0.00018428
3269.63	0.0001599
3279.27	0.000121
3288.92	0.00024758
3298.56	0.0003881
3308.21	0.0002005
3317.85	0.00020548
3327.49	0.00024599
3337.14	0.0003845
3346.78	0.000188621
3356.43	0.00019976
3366.07	0.0001747
3375.72	0.0001583
3385.36	0.0003706
3395.01	0.0003972
3404.65	0.0001216
3414.3	0.00026479
3423.94	0.0003022
3433.59	0.0002937
3443.23	0.00027614
3452.88	0.00028421
3462.52	0.0003837
3472.17	3.5e-05
3481.81	0.0004212
3491.46	0.0001605
3501.1	0.00020521
3510.75	4.2e-05
3520.39	0.00028316
3530.04	0.00020795
3539.68	0.00021242
3549.32	0.0001594
3558.97	0.0004057
3568.61	0.0003846
3578.26	0.00027103
3587.9	0.0003926
3597.55	0.000557
3607.19	0.0003917
3616.84	0.0001681
3626.48	0.0003866
3636.13	0.00023589
3645.77	0.00021788
3655.42	0.0003722
3665.06	0.000339
3674.71	0.00020106
3684.35	0.0004053
3694	0.0004417
3703.64	0.0003193
3713.29	0.0002932
3722.93	0.0001389
3732.58	8.6e-05
3742.22	0.00023377
3751.86	0.0001414
3761.51	0.0001288
3771.15	0.0001696
3780.8	0.0003372
3790.44	0.00020973
3800.09	0.0003821
3809.73	0.00025969
3819.38	0.000313
3829.02	0.0003035
3838.67	0.0004353
3848.31	0.0003841
3857.96	0.0004954
3867.6	0.00033
3877.25	0.0005624
3886.89	0.000757
3896.54	0.0007186
3906.18	0.0007458
3915.83	0.0005618
3925.47	0.0006306
3935.12	0.0004845
3944.76	0.0003531
3954.41	0.00025931
3964.05	0.0006206
3973.69	0.0005225
3983.34	0.0007902
3992.98	0.0007922
