Infrared Spectrum: BENZTHIAZIDE
Formula: C15 H14 Cl N3 O4 S3
CAS: 91-33-8
State: SOLID (KBr DISC) VS KBr
Class: COBLENTZ III
Instrument: PERKIN-ELMER 21 (GRATING)
Instrument parameters: FILTER AT ABOUT 10 MICRONS
Sampling: TRANSMISSION
Resolution: 2
1/CM	TRANSMITTANCE
4000	0.5505
3991	0.5508
3982	0.551
3973	0.5512
3964	0.5514
3955	0.5516
3946	0.5518
3937	0.552
3928	0.5525
3919	0.5532
3910	0.5538
3901	0.5545
3892	0.5551
3883	0.5558
3874	0.5564
3865	0.5571
3856	0.5577
3847	0.5585
3838	0.5594
3829	0.5604
3820	0.5614
3811	0.5624
3802	0.5634
3793	0.5644
3784	0.5655
3775	0.5665
3766	0.5675
3757	0.5687
3748	0.5701
3739	0.5715
3730	0.5728
3721	0.5742
3712	0.5756
3703	0.5769
3694	0.5781
3685	0.5792
3676	0.5803
3667	0.5814
3658	0.5826
3649	0.5836
3640	0.5842
3631	0.5847
3622	0.5852
3613	0.5851
3604	0.585
3595	0.5849
3586	0.5847
3577	0.5841
3568	0.5835
3559	0.5828
3550	0.582
3541	0.581
3532	0.58
3523	0.5786
3514	0.5766
3505	0.5733
3496	0.5721
3487	0.5712
3478	0.5708
3469	0.5704
3460	0.5698
3451	0.5683
3442	0.566
3433	0.5567
3424	0.4594
3415	0.3532
3406	0.2518
3397	0.2528
3388	0.288
3379	0.3257
3370	0.3638
3361	0.4018
3352	0.4392
3343	0.4469
3334	0.3773
3325	0.2834
3316	0.1892
3307	0.1538
3298	0.1684
3289	0.2051
3280	0.2418
3271	0.2788
3262	0.3156
3253	0.3489
3244	0.3928
3235	0.4155
3226	0.4322
3217	0.4455
3208	0.4589
3199	0.4725
3190	0.484
3181	0.4945
3172	0.5044
3163	0.513
3154	0.5165
3145	0.5177
3136	0.5184
3127	0.5187
3118	0.5139
3109	0.4985
3100	0.4882
3091	0.4864
3082	0.4876
3073	0.4972
3064	0.5102
3055	0.5139
3046	0.5165
3037	0.5202
3028	0.5309
3019	0.536
3010	0.5373
3001	0.5382
2992	0.5394
2983	0.5529
2974	0.5588
2965	0.5612
2956	0.5598
2947	0.5331
2938	0.5022
2929	0.5053
2920	0.5167
2911	0.5357
2902	0.5532
2893	0.5658
2884	0.5746
2875	0.583
2866	0.5897
2857	0.5949
2848	0.5996
2839	0.6044
2830	0.6089
2821	0.6122
2812	0.6155
2803	0.6188
2794	0.6216
2785	0.6242
2776	0.6268
2767	0.6294
2758	0.6317
2749	0.634
2740	0.6364
2731	0.6387
2722	0.6411
2713	0.643
2704	0.6451
2695	0.6471
2686	0.6492
2677	0.651
2668	0.6526
2659	0.6544
2650	0.6558
2641	0.6572
2632	0.6584
2623	0.6595
2614	0.6596
2605	0.658
2596	0.656
2587	0.6553
2578	0.6558
2569	0.6572
2560	0.6588
2551	0.6604
2542	0.6625
2533	0.6654
2524	0.6682
2515	0.6708
2506	0.6719
2497	0.6733
2488	0.6746
2479	0.6758
2470	0.6771
2461	0.6784
2452	0.6797
2443	0.681
2434	0.6822
2425	0.6836
2416	0.6851
2407	0.6868
2398	0.6887
2389	0.6906
2380	0.6924
2371	0.6943
2362	0.6961
2353	0.6981
2344	0.7
2335	0.7015
2326	0.7033
2317	0.7049
2308	0.7065
2299	0.7083
2290	0.7106
2281	0.7131
2272	0.7154
2263	0.7178
2254	0.7203
2245	0.7228
2236	0.7251
2227	0.7275
2218	0.7299
2209	0.7321
2200	0.7341
2191	0.7361
2182	0.7381
2173	0.7401
2164	0.7421
2155	0.7438
2146	0.7454
2137	0.7471
2128	0.7486
2119	0.7499
2110	0.7511
2101	0.7522
2092	0.7536
2083	0.7551
2074	0.7568
2065	0.7587
2056	0.7606
2047	0.7639
2038	0.768
2029	0.7708
2020	0.7726
2011	0.7747
2002	0.7747
1993	0.7728
1984	0.7708
1975	0.7693
1966	0.7705
1957	0.773
1948	0.7771
1939	0.7805
1930	0.7832
1921	0.785
1912	0.7854
1903	0.7864
1894	0.7891
1885	0.793
1876	0.7975
1867	0.8028
1858	0.8082
1849	0.8115
1840	0.8096
1831	0.8084
1822	0.8065
1813	0.8071
1804	0.8104
1795	0.8206
1786	0.8214
1777	0.8218
1768	0.8237
1759	0.8307
1750	0.8395
1741	0.8433
1732	0.8402
1723	0.8415
1714	0.8471
1705	0.8502
1696	0.8525
1687	0.8525
1678	0.8447
1669	0.8096
1660	0.7949
1651	0.7517
1642	0.614
1633	0.339
1624	0.1828
1615	0.3553
1606	0.3423
1597	0.144
1588	0.2301
1579	0.332
1570	0.4119
1561	0.4467
1552	0.5339
1543	0.6201
1534	0.6218
1525	0.5378
1516	0.229
1507	0.112
1498	0.2798
1489	0.5058
1480	0.595
1471	0.5881
1462	0.4873
1453	0.4364
1444	0.6685
1435	0.6978
1426	0.6296
1417	0.7168
1408	0.7212
1399	0.601
1390	0.6822
1381	0.6297
1372	0.1522
1363	0.3441
1354	0.2053
1345	0.228
1336	0.3384
1327	0.1754
1318	0.1414
1309	0.1727
1300	0.3238
1291	0.4834
1282	0.584
1273	0.6388
1264	0.6574
1255	0.6253
1246	0.6695
1237	0.5623
1228	0.469
1219	0.632
1210	0.6593
1201	0.5612
1192	0.3868
1183	0.0438
1174	0.0942
1165	0.1377
1156	0.1176
1147	0.3976
1138	0.4969
1129	0.5262
1120	0.4917
1111	0.6007
1102	0.6028
1093	0.2544
1084	0.5509
1075	0.6039
1066	0.6264
1057	0.6371
1048	0.6428
1039	0.6482
1030	0.6397
1021	0.456
1012	0.6548
1003	0.7165
994	0.7596
985	0.7596
976	0.5956
967	0.227
958	0.4726
949	0.6518
940	0.7125
931	0.5792
922	0.6794
913	0.5256
904	0.416
895	0.5252
886	0.6306
877	0.6768
868	0.3444
859	0.6507
850	0.4034
841	0.6233
832	0.7288
823	0.6553
814	0.3507
805	0.5982
796	0.504
787	0.7108
778	0.6167
769	0.5944
760	0.7247
751	0.5866
742	0.7053
733	0.7493
724	0.7199
715	0.521
706	0.3008
697	0.3126
688	0.6055
679	0.579
