Infrared Spectrum: Coumarin, 7-diethylamino-4-methyl-
Formula: C14 H17 N O2
CAS: 91-44-1
State: SOLID (SPLIT MULL), FLUOROLUBE FOR 3800-1330 CM^-^1, NUJOL FOR 1330-400 CM^-^1
Melting point: 70 C
Class: COBLENTZ III
Instrument: DOW KBr FOREPRISM-GRATING
Instrument parameters: BLAZED AT 3.5, 12.0, 20.0 MICRON AND CHANGED AT 5.0, 7.5, 14.9 MICRON
Sampling: TRANSMISSION
Resolution: 2
Origin: DOW CHEMICAL COMPANY
1/CM	TRANSMITTANCE
382	0.7228
391	0.7302
400	0.7369
409	0.7448
418	0.7504
427	0.7397
436	0.6683
445	0.705
454	0.7717
463	0.7909
472	0.7946
481	0.798
490	0.7977
499	0.8128
508	0.8258
517	0.8263
526	0.8156
535	0.7627
544	0.8268
553	0.8357
562	0.8402
571	0.8398
580	0.8177
589	0.8453
598	0.8503
607	0.8478
616	0.8449
625	0.853
634	0.8481
643	0.7912
652	0.8209
661	0.7676
670	0.8514
679	0.8509
688	0.8408
697	0.8411
706	0.8347
715	0.7639
724	0.777
733	0.8067
742	0.8145
751	0.7093
760	0.8136
769	0.797
778	0.82
787	0.8024
796	0.746
805	0.4165
814	0.8065
823	0.7779
832	0.4367
841	0.779
850	0.6663
859	0.5002
868	0.7789
877	0.8225
886	0.8121
895	0.7053
904	0.7968
913	0.8079
922	0.7983
931	0.8113
940	0.8057
949	0.8028
958	0.7976
967	0.7835
976	0.7228
985	0.7798
994	0.776
1003	0.7641
1012	0.6323
1021	0.7602
1030	0.7563
1039	0.6901
1048	0.7505
1057	0.7261
1066	0.594
1075	0.3178
1084	0.4449
1093	0.6843
1102	0.6211
1111	0.7615
1120	0.7662
1129	0.7465
1138	0.6635
1147	0.3332
1156	0.6452
1165	0.7144
1174	0.6741
1183	0.727
1192	0.6848
1201	0.4027
1210	0.7094
1219	0.7096
1228	0.5273
1237	0.542
1246	0.6988
1255	0.7095
1264	0.653
1273	0.4469
1282	0.6006
1291	0.5691
1300	0.6714
1309	0.5624
1318	0.6911
1327	0.6984
1336	0.4345
1345	0.4412
1354	0.2495
1363	0.4121
1372	0.4457
1381	0.5422
1390	0.5099
1399	0.6141
1408	0.5137
1417	0.2358
1426	0.3912
1435	0.5391
1444	0.5529
1453	0.5884
1462	0.6259
1471	0.6317
1480	0.7027
1489	0.6553
1498	0.6908
1507	0.6635
1516	0.5992
1525	0.2859
1534	0.6202
1543	0.663
1552	0.646
1561	0.5761
1570	0.5339
1579	0.3898
1588	0.1718
1597	0.0725
1606	0.0985
1615	0.0997
1624	0.1769
1633	0.5095
1642	0.6673
1651	0.7063
1660	0.6754
1669	0.5999
1678	0.5422
1687	0.4356
1696	0.2485
1705	0.0551
1714	0.1706
1723	0.5336
1732	0.6978
1741	0.709
1750	0.7233
1759	0.8262
1768	0.8625
1777	0.8645
1786	0.8602
1795	0.8649
1804	0.8653
1813	0.8612
1822	0.8535
1831	0.845
1840	0.8537
1849	0.8545
1858	0.8455
1867	0.8388
1876	0.8303
1885	0.8407
1894	0.8432
1903	0.842
1912	0.8396
1921	0.8375
1930	0.8361
1939	0.834
1948	0.8309
1957	0.8265
1966	0.8225
1975	0.8192
1984	0.8158
1993	0.804
2002	0.8041
2011	0.8025
2020	0.8017
2029	0.8005
2038	0.7995
2047	0.7985
2056	0.7975
2065	0.7951
2074	0.7928
2083	0.7905
2092	0.7885
2101	0.7858
2110	0.7831
2119	0.7805
2128	0.7781
2137	0.7756
2146	0.7729
2155	0.7699
2164	0.7669
2173	0.7636
2182	0.7611
2191	0.7594
2200	0.7563
2209	0.7525
2218	0.7492
2227	0.7454
2236	0.7423
2245	0.7387
2254	0.7338
2263	0.7277
2272	0.7223
2281	0.7169
2290	0.7108
2299	0.7037
2308	0.7008
2317	0.7069
2326	0.7142
2335	0.7146
2344	0.7101
2353	0.7058
2362	0.7039
2371	0.7037
2380	0.7046
2389	0.7058
2398	0.7071
2407	0.7085
2416	0.7091
2425	0.7089
2434	0.7086
2443	0.7081
2452	0.7078
2461	0.7072
2470	0.7066
2479	0.7051
2488	0.7026
2497	0.6995
2506	0.7007
2515	0.7019
2524	0.7018
2533	0.7005
2542	0.6984
2551	0.6962
2560	0.6935
2569	0.6905
2578	0.6876
2587	0.6844
2596	0.6811
2605	0.6772
2614	0.6734
2623	0.6714
2632	0.6693
2641	0.6671
2650	0.6635
2659	0.6596
2668	0.6551
2677	0.6481
2686	0.6516
2695	0.6547
2704	0.653
2713	0.6494
2722	0.644
2731	0.6397
2740	0.6381
2749	0.6342
2758	0.6327
2767	0.6364
2776	0.6381
2785	0.6362
2794	0.633
2803	0.628
2812	0.6219
2821	0.6153
2830	0.6082
2839	0.599
2848	0.5879
2857	0.5738
2866	0.5565
2875	0.5615
2884	0.5693
2893	0.5589
2902	0.5466
2911	0.5354
2920	0.525
2929	0.505
2938	0.5287
2947	0.5449
2956	0.538
2965	0.4835
2974	0.391
2983	0.4754
2992	0.5872
3001	0.6124
3010	0.6179
3019	0.6191
3028	0.6191
3037	0.6169
3046	0.6142
3055	0.6107
3064	0.6078
3073	0.6062
3082	0.6079
3091	0.6103
3100	0.613
3109	0.6144
3118	0.6122
3127	0.6104
3136	0.6097
3145	0.6089
3154	0.6075
3163	0.6055
3172	0.6033
3181	0.5994
3190	0.5944
3199	0.5883
3208	0.5867
3217	0.5857
3226	0.5844
3235	0.583
3244	0.5816
3253	0.5804
3262	0.5801
3271	0.58
3280	0.5797
3289	0.5793
3298	0.5789
3307	0.5782
3316	0.5771
3325	0.576
3334	0.5749
3343	0.5738
3352	0.5729
3361	0.5722
3370	0.5713
3379	0.5679
3388	0.5644
3397	0.5613
3406	0.5612
3415	0.5611
3424	0.5614
3433	0.5616
3442	0.5619
3451	0.5622
3460	0.5626
3469	0.5626
3478	0.5627
3487	0.5628
3496	0.5628
3505	0.5628
3514	0.5628
3523	0.5628
3532	0.5628
3541	0.5627
3550	0.5626
3559	0.5625
3568	0.5624
3577	0.5623
3586	0.5623
3595	0.5623
3604	0.5623
3613	0.5623
3622	0.5621
3631	0.5616
3640	0.5612
3649	0.5607
3658	0.5597
3667	0.5585
3676	0.557
3685	0.5536
3694	0.5513
3703	0.5508
3712	0.5504
3721	0.5497
3730	0.5488
3739	0.5479
3748	0.5471
3757	0.5462
3766	0.5456
3775	0.545
3784	0.545
3793	0.5449
3802	0.5449
