Infrared Spectrum: 1,2-Benzopyrone
Formula: C9 H6 O2
CAS: 91-64-5
State: SOLUTION (CCl4 FOR 4000-1300, CS2 FOR 1300-450 CM^-^1) VS SOLVENT
Melting point: 69 C
Boiling point: 298 C
Class: COBLENTZ III
Instrument: CARY 90 (GRATING)
Instrument parameters: GRATING CHANGES: 3000, 2000, 1200 CM^-^1
Sampling: TRANSMISSION
Path length: 0.010 CM, AND 0.010 CM
Resolution: 2
Origin: WESTERN REGIONAL RES. USDA
1/CM	TRANSMITTANCE
453	0.7454
462	0.782
471	0.8083
480	0.8279
489	0.8112
498	0.7938
507	0.8433
516	0.8523
525	0.8037
534	0.847
543	0.8589
552	0.8746
561	0.909
570	0.8973
579	0.8995
588	0.9102
597	0.9045
606	0.8827
615	0.8309
624	0.8847
633	0.8922
642	0.8831
651	0.8702
660	0.8681
669	0.8868
678	0.8788
687	0.8866
696	0.8984
705	0.9015
714	0.9004
723	0.8954
732	0.8871
741	0.8649
750	0.3873
759	0.601
768	0.8423
777	0.9027
786	0.9204
795	0.9142
804	0.8946
813	0.8766
822	0.5954
831	0.5655
840	0.8608
849	0.8591
858	0.8347
867	0.8054
876	0.8418
885	0.7233
894	0.8157
903	0.8796
912	0.866
921	0.8311
930	0.8098
939	0.8266
948	0.8845
957	0.8971
966	0.8987
975	0.8912
984	0.89
993	0.8967
1002	0.8973
1011	0.8941
1020	0.8875
1029	0.8677
1038	0.8848
1047	0.8873
1056	0.8871
1065	0.8857
1074	0.8841
1083	0.8662
1092	0.7567
1101	0.413
1110	0.8304
1119	0.5647
1128	0.7971
1137	0.8234
1146	0.8617
1155	0.855
1164	0.8653
1173	0.5003
1182	0.6162
1191	0.8044
1200	0.7814
1209	0.8444
1218	0.8307
1227	0.7556
1236	0.841
1245	0.8401
1254	0.7193
1263	0.7952
1272	0.7043
1281	0.8462
1290	0.8525
1299	0.8546
1308	0.862
1317	0.8546
1326	0.8346
1335	0.8508
1344	0.8568
1353	0.8566
1362	0.8509
1371	0.8506
1380	0.8549
1389	0.8518
1398	0.7053
1407	0.8408
1416	0.8515
1425	0.8508
1434	0.8429
1443	0.8489
1452	0.7019
1461	0.8352
1470	0.8525
1479	0.8503
1488	0.8142
1497	0.8401
1506	0.8396
1515	0.8348
1524	0.8287
1533	0.8191
1542	0.806
1551	0.7929
1560	0.7824
1569	0.674
1578	0.815
1587	0.8131
1596	0.7987
1605	0.6256
1614	0.7152
1623	0.6836
1632	0.8014
1641	0.8194
1650	0.8308
1659	0.8314
1668	0.8076
1677	0.8352
1686	0.8407
1695	0.8267
1704	0.7767
1713	0.7663
1722	0.7572
1731	0.5789
1740	0.1419
1749	0.3181
1758	0.1797
1767	0.5987
1776	0.6924
1785	0.7791
1794	0.8228
1803	0.8304
1812	0.8287
1821	0.837
1830	0.8511
1839	0.8468
1848	0.8501
1857	0.8553
1866	0.8573
1875	0.8571
1884	0.8565
1893	0.8565
1902	0.8562
1911	0.8544
1920	0.8524
1929	0.8522
1938	0.8558
1947	0.8629
1956	0.8588
1965	0.8457
1974	0.8363
1983	0.857
1992	0.8703
2001	0.8222
2010	0.8269
2019	0.8364
2028	0.8407
2037	0.843
2046	0.8444
2055	0.8451
2064	0.8457
2073	0.8462
2082	0.8468
2091	0.8471
2100	0.8475
2109	0.8477
2118	0.8479
2127	0.8481
2136	0.8483
2145	0.8485
2154	0.8487
2163	0.8488
2172	0.8488
2181	0.8488
2190	0.8489
2199	0.8489
2208	0.849
2217	0.849
2226	0.8489
2235	0.8489
2244	0.8489
2253	0.8489
2262	0.8488
2271	0.8492
2280	0.8498
2289	0.8502
2298	0.8507
2307	0.8512
2316	0.8517
2325	0.8521
2334	0.8526
2343	0.8534
2352	0.8546
2361	0.8557
2370	0.8569
2379	0.858
2388	0.859
2397	0.8596
2406	0.8602
2415	0.8608
2424	0.8614
2433	0.862
2442	0.8626
2451	0.8632
2460	0.8638
2469	0.8643
2478	0.8649
2487	0.8653
2496	0.8657
2505	0.8661
2514	0.8665
2523	0.8668
2532	0.8672
2541	0.8677
2550	0.8683
2559	0.8689
2568	0.8696
2577	0.8701
2586	0.8704
2595	0.8706
2604	0.8708
2613	0.871
2622	0.8712
2631	0.8714
2640	0.8718
2649	0.8721
2658	0.8725
2667	0.8729
2676	0.8735
2685	0.8739
2694	0.8741
2703	0.8744
2712	0.8749
2721	0.8753
2730	0.8769
2739	0.8788
2748	0.8788
2757	0.8777
2766	0.8763
2775	0.8748
2784	0.8742
2793	0.8736
2802	0.8731
2811	0.8728
2820	0.8726
2829	0.8735
2838	0.8745
2847	0.8744
2856	0.8737
2865	0.8702
2874	0.8664
2883	0.8738
2892	0.8807
2901	0.8815
2910	0.8793
2919	0.8745
2928	0.879
2937	0.8852
2946	0.8826
2955	0.8775
2964	0.8708
2973	0.8707
2982	0.8712
2991	0.863
3000	0.832
3009	0.8741
3018	0.8823
3027	0.8812
3036	0.8695
3045	0.8467
3054	0.8361
3063	0.8474
3072	0.8572
3081	0.8617
3090	0.8645
3099	0.8677
3108	0.8713
3117	0.8743
3126	0.8736
3135	0.8678
3144	0.8661
3153	0.8666
3162	0.8674
3171	0.8681
3180	0.869
3189	0.8701
3198	0.8711
3207	0.872
3216	0.873
3225	0.874
3234	0.8748
3243	0.8754
3252	0.8761
3261	0.8767
3270	0.8769
3279	0.877
3288	0.8772
3297	0.8773
3306	0.8774
3315	0.8775
3324	0.8776
3333	0.8777
3342	0.8778
3351	0.8778
3360	0.8778
3369	0.8778
3378	0.8777
3387	0.8777
3396	0.8774
3405	0.8772
3414	0.8769
3423	0.8766
3432	0.8764
3441	0.8761
3450	0.8758
3459	0.8755
3468	0.8752
3477	0.875
3486	0.875
3495	0.8751
3504	0.8751
3513	0.8753
3522	0.8758
3531	0.8762
3540	0.8768
3549	0.8772
3558	0.8774
3567	0.8775
3576	0.8777
3585	0.8778
3594	0.8778
3603	0.8777
3612	0.8776
3621	0.8775
3630	0.8774
3639	0.8775
3648	0.8778
3657	0.878
3666	0.8783
3675	0.8787
3684	0.8794
3693	0.88
3702	0.8807
3711	0.8812
3720	0.8815
3729	0.8818
3738	0.8821
3747	0.8823
3756	0.8825
3765	0.8827
3774	0.8829
3783	0.8831
3792	0.8833
3801	0.8834
3810	0.8836
3819	0.8838
3828	0.8842
3837	0.8848
3846	0.8855
3855	0.886
3864	0.8869
3873	0.8883
3882	0.8897
3891	0.891
3900	0.8928
3909	0.8946
3918	0.8964
3927	0.8982
3936	0.8997
3945	0.9013
3954	0.9029
3963	0.9049
3972	0.9069
3981	0.9089
3990	0.9111
3999	0.9131
