Infrared Spectrum: 2-Naphthalenethiol
Formula: C 10 H 8 S
CAS: 91-60-1
State: gas
Instrument: HP-GC/MS/IRD
Origin: NIST Mass Spectrometry Data Center
1/CM	ABSORBANCE
550	1.05e-05
562	3.7e-05
574	5.9e-05
586	1.5e-06
598	0.000507
610	0.000347
622	0.0001945
634	0.0001445
646	0.0001135
658	0.000244
670	0.000145
682	9.9e-05
694	0.000104
706	0.0001875
718	0.00083
730	0.00222
742	0.0025485
754	0.0012775
766	0.0007315
778	0.00082
790	0.001962
802	0.003717
814	0.002672
826	0.0013145
838	0.002151
850	0.002399
862	0.0011095
874	0.0008325
886	0.0008685
898	0.0005525
910	0.000463
922	0.0005305
934	0.000881
946	0.001234
958	0.0005895
970	0.0002755
982	0.0002175
994	0.0002945
1006	0.0003325
1018	0.00031
1030	0.0002785
1042	0.0001605
1054	0.000186
1066	0.0003545
1078	0.001135
1090	0.00075
1102	0.000253
1114	0.0003005
1126	0.000762
1138	0.0010725
1150	0.0005925
1162	0.000209
1174	0.0001725
1186	0.0002805
1198	0.0003635
1210	0.00034
1222	0.000307
1234	0.0003575
1246	0.000343
1258	0.000405
1270	0.0004155
1282	0.0002195
1294	0.0001215
1306	0.000151
1318	0.0002015
1330	0.0003995
1342	0.0005945
1354	0.0007
1366	0.0005565
1378	0.0003095
1390	0.0001625
1402	0.000134
1414	0.000143
1426	0.0002255
1438	0.00028
1450	0.000499
1462	0.000637
1474	0.0005245
1486	0.000639
1498	0.0018425
1510	0.0009565
1522	0.000197
1534	0.0002695
1546	0.000347
1558	0.000549
1570	0.00088
1582	0.0012825
1594	0.0017795
1606	0.0009815
1618	0.0009395
1630	0.0012305
1642	0.000434
1654	0.0002405
1666	0.0002145
1678	0.0003105
1690	0.000374
1702	0.0002875
1714	0.000268
1726	0.000318
1738	0.0003275
1750	0.0003265
1762	0.0002985
1774	0.0002865
1786	0.0002485
1798	0.0002145
1810	0.000257
1822	0.000246
1834	0.000218
1846	0.000165
1858	0.0001315
1870	0.0001355
1882	0.0002125
1894	0.000356
1906	0.0003525
1918	0.0002995
1930	0.000292
1942	0.000333
1954	0.0001645
1966	9.15e-05
1978	8.35e-05
1990	7.35e-05
2002	4.8e-05
2014	5.15e-05
2026	5.45e-05
2038	6.75e-05
2050	5.95e-05
2062	7.35e-05
2074	6.7e-05
2086	6.55e-05
2098	5.7e-05
2110	2.4e-05
2122	2.4e-05
2134	7.75e-05
2146	3.95e-05
2158	5.65e-05
2170	4.55e-05
2182	4.9e-05
2194	7.6e-05
2206	5.8e-05
2218	4.8e-05
2230	4.75e-05
2242	5e-05
2254	9e-05
2266	5.15e-05
2278	0.0001065
2290	0.000117
2302	9.55e-05
2314	9.7e-05
2326	8.35e-05
2338	9.35e-05
2350	5.8e-05
2362	9.15e-05
2374	8.7e-05
2386	6.2e-05
2398	7.1e-05
2410	7.45e-05
2422	6.2e-05
2434	7.85e-05
2446	8.85e-05
2458	8.2e-05
2470	0.000113
2482	4.65e-05
2494	3.6e-05
2506	5.5e-05
2518	5.4e-05
2530	7.05e-05
2542	5.75e-05
2554	4.45e-05
2566	8.85e-05
2578	0.000101
2590	0.0001185
2602	7.7e-05
2614	8.2e-05
2626	3.9e-05
2638	4.35e-05
2650	8.5e-05
2662	0
2674	5.7e-05
2686	4.15e-05
2698	5.35e-05
2710	5.55e-05
2722	4.4e-05
2734	9.05e-05
2746	8.5e-05
2758	4.75e-05
2770	4.75e-05
2782	6.15e-05
2794	4.25e-05
2806	7.25e-05
2818	4.7e-05
2830	0.0001095
2842	5.6e-05
2854	3.2e-05
2866	5.95e-05
2878	2.95e-05
2890	8.4e-05
2902	0.0001165
2914	0.000127
2926	0.0001825
2938	0.0002115
2950	0.0002235
2962	0.000282
2974	0.000287
2986	0.0002925
2998	0.000419
3010	0.000645
3022	0.0008585
3034	0.001043
3046	0.0021455
3058	0.0047205
3070	0.0043165
3082	0.0021465
3094	0.0009105
3106	0.0003565
3118	0.0001685
3130	0.0001765
3142	0.000138
3154	0.000183
3166	0.000163
3178	9.5e-05
3190	8.1e-05
3202	9.2e-05
3214	8.05e-05
3226	8.45e-05
3238	0.0001065
3250	0.0001415
3262	9.05e-05
3274	7.35e-05
3286	5.85e-05
3298	4.75e-05
3310	8e-05
3322	0.000114
3334	8.2e-05
3346	0.0001055
3358	7.7e-05
3370	7.9e-05
3382	4.95e-05
3394	8.85e-05
3406	0.0001455
3418	4.55e-05
3430	7e-05
3442	8.6e-05
3454	7.1e-05
3466	0.000104
3478	7.6e-05
3490	0.0001025
3502	5.25e-05
3514	7.45e-05
3526	7.5e-05
3538	0.0001095
3550	5.75e-05
3562	8.45e-05
3574	9.1e-05
3586	7.95e-05
3598	9.4e-05
3610	7.35e-05
3622	0.000148
3634	0.000123
3646	5.65e-05
3658	0.000123
3670	8.55e-05
3682	0.0001045
3694	0.0001075
3706	0.000122
3718	0.000103
3730	8.45e-05
3742	0.000148
3754	0.0001345
3766	4.25e-05
3778	0.0001005
3790	0.0001095
3802	0.0001185
3814	9.35e-05
3826	0.000135
3838	0.0002065
