Infrared Spectrum: DIBENZYL ANILINE
Formula: C20 H19 N
CAS: 91-73-6
State: SOLUTION (10% CCl4 FOR 2.5-7.5, 10% CS2 FOR 7.5-16 MICRON)
Class: COBLENTZ
Instrument: Not specified, most likely a prism, grating, or hybrid spectrometer.
Sampling: TRANSMISSION
Path length: 0.01 CM, 0.01 CM
Resolution: 4
Origin: DOW CHEMICAL COMPANY
MICROMETERS	TRANSMITTANCE
1.998	0.927
2.03705	0.923
2.07609	0.919
2.11514	0.914
2.15418	0.914
2.19323	0.92
2.23227	0.922
2.27132	0.92
2.31036	0.92
2.34941	0.92
2.38845	0.914
2.4275	0.899
2.46654	0.901
2.50559	0.915
2.54463	0.919
2.58368	0.914
2.62272	0.917
2.66177	0.922
2.70081	0.919
2.73986	0.919
2.7789	0.922
2.81795	0.925
2.85699	0.932
2.89604	0.93
2.93508	0.932
2.97413	0.936
3.01317	0.932
3.05222	0.93
3.09126	0.927
3.13031	0.922
3.16935	0.898
3.2084	0.741
3.24744	0.577
3.28649	0.521
3.32553	0.677
3.36458	0.797
3.40362	0.715
3.44267	0.697
3.48171	0.694
3.52076	0.794
3.5598	0.839
3.59885	0.88
3.63789	0.893
3.67694	0.891
3.71598	0.896
3.75503	0.901
3.79407	0.893
3.83312	0.885
3.87216	0.891
3.91121	0.898
3.95025	0.901
3.9893	0.904
4.02834	0.906
4.06739	0.904
4.10643	0.906
4.14548	0.902
4.18452	0.901
4.22357	0.899
4.26261	0.893
4.30166	0.889
4.3407	0.894
4.37975	0.899
4.41879	0.896
4.45784	0.898
4.49688	0.904
4.53593	0.907
4.57497	0.902
4.61402	0.901
4.65306	0.901
4.69211	0.901
4.73115	0.904
4.7702	0.906
4.80924	0.907
4.84829	0.906
4.88733	0.909
4.92638	0.911
4.96542	0.906
5.00447	0.901
5.04351	0.886
5.08256	0.872
5.1216	0.841
5.16065	0.838
5.19969	0.844
5.23874	0.852
5.27778	0.878
5.31683	0.872
5.35587	0.864
5.39492	0.859
5.43396	0.872
5.47301	0.872
5.51205	0.844
5.5511	0.834
5.59014	0.857
5.62919	0.875
5.66823	0.875
5.70728	0.872
5.74632	0.873
5.78537	0.875
5.82441	0.881
5.86346	0.88
5.9025	0.873
5.94155	0.868
5.98059	0.859
6.01964	0.849
6.05868	0.846
6.09773	0.815
6.13677	0.729
6.17582	0.551
6.21486	0.291
6.25391	0.168
6.29295	0.286
6.332	0.412
6.37104	0.543
6.41009	0.606
6.44913	0.648
6.48818	0.676
6.52722	0.679
6.56627	0.588
6.60531	0.383
6.64436	0.199
6.6834	0.199
6.72245	0.576
6.76149	0.637
6.80054	0.655
6.83958	0.514
6.87863	0.383
6.91767	0.561
6.95672	0.618
6.99576	0.715
7.03481	0.744
7.07385	0.695
7.1129	0.561
7.15194	0.43
7.19099	0.422
7.23003	0.48
7.26908	0.537
7.30812	0.389
7.34717	0.239
7.38621	0.3
7.42526	0.425
7.4643	0.595
7.50335	0.6
7.54239	0.639
7.58144	0.705
7.62048	0.708
7.65953	0.627
7.69857	0.55
7.73762	0.569
7.77666	0.661
7.81571	0.653
7.85475	0.631
7.8938	0.632
7.93284	0.577
7.97189	0.561
8.01093	0.576
8.04998	0.483
8.08902	0.284
8.12807	0.186
8.16711	0.245
8.20616	0.362
8.2452	0.432
8.28425	0.364
8.32329	0.325
8.36234	0.462
8.40138	0.563
8.44043	0.627
8.47947	0.608
8.51852	0.561
8.55756	0.49
8.59661	0.435
8.63565	0.498
8.6747	0.566
8.71374	0.634
8.75279	0.697
8.79183	0.729
8.83088	0.771
8.86992	0.794
8.90897	0.805
8.94801	0.82
8.98706	0.822
9.0261	0.805
9.06515	0.799
9.10419	0.812
9.14324	0.826
9.18228	0.828
9.22133	0.784
9.26037	0.724
9.29942	0.673
9.33846	0.666
9.37751	0.755
9.41655	0.805
9.4556	0.809
9.49464	0.804
9.53369	0.796
9.57273	0.791
9.61178	0.788
9.65082	0.758
9.68987	0.58
9.72891	0.44
9.76796	0.631
9.807	0.773
9.84605	0.805
9.88509	0.836
9.92414	0.839
9.96318	0.825
10.0022	0.805
10.0413	0.784
10.0803	0.618
10.1194	0.472
10.1584	0.668
10.1975	0.744
10.2365	0.766
10.2755	0.773
10.3146	0.726
10.3536	0.634
10.3927	0.535
10.4317	0.423
10.4708	0.336
10.5098	0.368
10.5489	0.506
10.5879	0.588
10.6269	0.663
10.666	0.705
10.705	0.744
10.7441	0.781
10.7831	0.804
10.8222	0.825
10.8612	0.833
10.9003	0.834
10.9393	0.838
10.9784	0.831
11.0174	0.809
11.0564	0.802
11.0955	0.797
11.1345	0.789
11.1736	0.786
11.2126	0.791
11.2517	0.804
11.2907	0.828
11.3298	0.834
11.3688	0.833
11.4078	0.828
11.4469	0.818
11.4859	0.8
11.525	0.76
11.564	0.723
11.6031	0.684
11.6421	0.689
11.6812	0.752
11.7202	0.789
11.7593	0.805
11.7983	0.82
11.8373	0.822
11.8764	0.822
11.9154	0.828
11.9545	0.841
11.9935	0.843
12.0326	0.844
12.0716	0.846
12.1107	0.847
12.1497	0.844
12.1887	0.836
12.2278	0.831
12.2668	0.822
12.3059	0.81
12.3449	0.805
12.384	0.8
12.423	0.799
12.4621	0.807
12.5011	0.817
12.5402	0.822
12.5792	0.822
12.6182	0.805
12.6573	0.783
12.6963	0.781
12.7354	0.792
12.7744	0.799
12.8135	0.796
12.8525	0.773
12.8916	0.749
12.9306	0.711
12.9696	0.666
13.0087	0.614
13.0477	0.564
13.0868	0.514
13.1258	0.503
13.1649	0.516
13.2039	0.529
13.243	0.487
13.282	0.419
13.3211	0.294
13.3601	0.179
13.3991	0.08
13.4382	0.035
13.4772	0.08
13.5163	0.16
13.5553	0.247
13.5944	0.276
13.6334	0.244
13.6725	0.176
13.7115	0.098
13.7505	0.045
13.7896	0.04
13.8286	0.09
13.8677	0.231
13.9067	0.38
13.9458	0.495
13.9848	0.553
14.0239	0.61
14.0629	0.622
14.102	0.621
14.141	0.597
14.18	0.532
14.2191	0.454
14.2581	0.362
14.2972	0.236
14.3362	0.142
14.3753	0.082
14.4143	0.05
14.4534	0.043
14.4924	0.079
14.5314	0.16
14.5705	0.275
14.6095	0.407
14.6486	0.509
14.6876	0.585
14.7267	0.627
14.7657	0.656
14.8048	0.676
14.8438	0.69
14.8829	0.702
14.9219	0.703
14.9609	0.721
15	0.736
15.039	0.75
15.0781	0.762
15.1171	0.765
15.1562	0.763
15.1952	0.762
15.2343	0.762
15.2733	0.757
15.3123	0.754
15.3514	0.747
15.3904	0.741
15.4295	0.734
15.4685	0.723
15.5076	0.716
15.5466	0.71
15.5857	0.703
15.6247	0.7
15.6638	0.695
15.7028	0.687
15.7418	0.682
15.7809	0.684
15.8199	0.687
15.859	0.686
