Infrared Spectrum: THENYLDIAMINE
Formula: C14 H19 N3 S
CAS: 91-79-2
State: SOLUTION (CS2 FOR 2-15, C2Cl4 FOR 5-7.5 MICRONS)
Boiling point: 169-172 C AT 1.0 mmHg
Class: COBLENTZ III
Instrument: PERKIN-ELMER 21 (GRATING)
Instrument parameters: FILTER CHANGE AT 10 MICRON
Sampling: TRANSMISSION
Path length: 0.01 CM, 0.01 CM
Resolution: 2
MICROMETERS	TRANSMITTANCE
2.038	0.973
2.07136	0.972
2.10471	0.972
2.13807	0.972
2.17143	0.971
2.20479	0.966
2.23814	0.96
2.2715	0.961
2.30486	0.958
2.33821	0.948
2.37157	0.953
2.40493	0.951
2.43829	0.95
2.47164	0.953
2.505	0.95
2.53836	0.951
2.57172	0.954
2.60507	0.959
2.63843	0.958
2.67179	0.952
2.70514	0.954
2.7385	0.959
2.77186	0.96
2.80522	0.975
2.83857	0.973
2.87193	0.964
2.90529	0.963
2.93864	0.96
2.972	0.957
3.00536	0.953
3.03872	0.951
3.07207	0.947
3.10543	0.941
3.13879	0.925
3.17214	0.921
3.2055	0.877
3.23886	0.805
3.27222	0.764
3.30557	0.703
3.33893	0.573
3.37229	0.361
3.40565	0.312
3.439	0.422
3.47236	0.483
3.50572	0.447
3.53907	0.5
3.57243	0.382
3.60579	0.293
3.63915	0.467
3.6725	0.703
3.70586	0.786
3.73922	0.862
3.77257	0.888
3.80593	0.908
3.83929	0.918
3.87265	0.923
3.906	0.929
3.93936	0.926
3.97272	0.918
4.00607	0.918
4.03943	0.923
4.07279	0.933
4.10615	0.94
4.1395	0.942
4.17286	0.944
4.20622	0.945
4.23957	0.944
4.27293	0.945
4.30629	0.94
4.33965	0.932
4.373	0.926
4.40636	0.929
4.43972	0.939
4.47308	0.944
4.50643	0.941
4.53979	0.934
4.57315	0.927
4.6065	0.92
4.63986	0.92
4.67322	0.914
4.70658	0.914
4.73993	0.913
4.77329	0.933
4.80665	0.952
4.84	0.954
4.87336	0.953
4.90672	0.942
4.94008	0.947
4.97343	0.952
5.00679	0.954
5.04015	0.961
5.0735	0.961
5.10686	0.958
5.14022	0.94
5.17358	0.937
5.20693	0.933
5.24029	0.945
5.27365	0.929
5.30701	0.953
5.34036	0.958
5.37372	0.959
5.40708	0.96
5.44043	0.96
5.47379	0.959
5.50715	0.953
5.54051	0.939
5.57386	0.944
5.60722	0.944
5.64058	0.947
5.67393	0.94
5.70729	0.923
5.74065	0.919
5.77401	0.928
5.80736	0.935
5.84072	0.935
5.87408	0.934
5.90743	0.934
5.94079	0.923
5.97415	0.92
6.00751	0.919
6.04086	0.916
6.07422	0.899
6.10758	0.853
6.14094	0.767
6.17429	0.452
6.20765	0.125
6.24101	0.051
6.27436	0.153
6.30772	0.431
6.34108	0.511
6.37444	0.345
6.40779	0.447
6.44115	0.735
6.47451	0.748
6.50786	0.769
6.54122	0.782
6.57458	0.776
6.60794	0.617
6.64129	0.159
6.67465	0.038
6.70801	0.043
6.74136	0.136
6.77472	0.29
6.80808	0.302
6.84144	0.288
6.87479	0.362
6.90815	0.111
6.94151	0.073
6.97486	0.18
7.00822	0.47
7.04158	0.421
7.07494	0.452
7.10829	0.596
7.14165	0.597
7.17501	0.491
7.20837	0.48
7.24172	0.442
7.27508	0.476
7.30844	0.529
7.34179	0.492
7.37515	0.495
7.40851	0.573
7.44187	0.558
7.47522	0.488
7.50858	0.396
7.54194	0.388
7.57529	0.353
7.60865	0.296
7.64201	0.381
7.67537	0.488
7.70872	0.461
7.74208	0.527
7.77544	0.539
7.80879	0.445
7.84215	0.435
7.87551	0.48
7.90887	0.458
7.94222	0.403
7.97558	0.327
8.00894	0.283
8.0423	0.252
8.07565	0.388
8.10901	0.576
8.14237	0.661
8.17572	0.638
8.20908	0.568
8.24244	0.57
8.2758	0.568
8.30915	0.528
8.34251	0.5
8.37587	0.539
8.40922	0.65
8.44258	0.718
8.47594	0.72
8.5093	0.636
8.54265	0.501
8.57601	0.389
8.60937	0.306
8.64272	0.294
8.67608	0.381
8.70944	0.369
8.7428	0.535
8.77615	0.59
8.80951	0.65
8.84287	0.773
8.87623	0.838
8.90958	0.852
8.94294	0.871
8.9763	0.877
9.00965	0.88
9.04301	0.874
9.07637	0.833
9.10973	0.671
9.14308	0.514
9.17644	0.666
9.2098	0.729
9.24315	0.728
9.27651	0.668
9.30987	0.66
9.34323	0.737
9.37658	0.767
9.40994	0.761
9.4433	0.66
9.47665	0.509
9.51001	0.428
9.54337	0.437
9.57673	0.473
9.61008	0.441
9.64344	0.552
9.6768	0.66
9.71015	0.713
9.74351	0.72
9.77687	0.672
9.81023	0.602
9.84358	0.596
9.87694	0.606
9.9103	0.58
9.94366	0.585
9.97701	0.66
10.0104	0.724
10.0437	0.768
10.0771	0.793
10.1104	0.813
10.1438	0.817
10.1772	0.769
10.2105	0.498
10.2439	0.334
10.2772	0.533
10.3106	0.633
10.3439	0.692
10.3773	0.751
10.4107	0.79
10.444	0.802
10.4774	0.773
10.5107	0.672
10.5441	0.59
10.5774	0.555
10.6108	0.548
10.6442	0.502
10.6775	0.479
10.7109	0.492
10.7442	0.551
10.7776	0.629
10.8109	0.671
10.8443	0.686
10.8777	0.733
10.911	0.795
10.9444	0.832
10.9777	0.861
11.0111	0.869
11.0444	0.878
11.0778	0.885
11.1112	0.894
11.1445	0.895
11.1779	0.882
11.2112	0.857
11.2446	0.814
11.2779	0.794
11.3113	0.789
11.3447	0.806
11.378	0.819
11.4114	0.827
11.4447	0.834
11.4781	0.83
11.5114	0.824
11.5448	0.802
11.5782	0.764
11.6115	0.712
11.6449	0.671
11.6782	0.638
11.7116	0.628
11.7449	0.627
11.7783	0.64
11.8117	0.672
11.845	0.728
11.8784	0.752
11.9117	0.756
11.9451	0.641
11.9784	0.48
12.0118	0.477
12.0452	0.551
12.0785	0.552
12.1119	0.596
12.1452	0.72
12.1786	0.806
12.2119	0.833
12.2453	0.858
12.2787	0.861
12.312	0.861
12.3454	0.858
12.3787	0.851
12.4121	0.837
12.4454	0.817
12.4788	0.794
12.5122	0.773
12.5455	0.738
12.5789	0.711
12.6122	0.691
12.6456	0.673
12.6789	0.654
12.7123	0.619
12.7457	0.596
12.779	0.565
12.8124	0.52
12.8457	0.467
12.8791	0.426
12.9124	0.388
12.9458	0.318
12.9792	0.239
13.0125	0.104
13.0459	0.051
13.0792	0.036
13.1126	0.039
13.1459	0.074
13.1793	0.159
13.2127	0.261
13.246	0.366
13.2794	0.464
13.3127	0.527
13.3461	0.572
13.3794	0.622
13.4128	0.665
13.4462	0.713
13.4795	0.745
13.5129	0.763
13.5462	0.767
13.5796	0.713
13.6129	0.628
13.6463	0.482
13.6797	0.301
13.713	0.262
13.7464	0.362
13.7797	0.555
13.8131	0.678
13.8464	0.752
13.8798	0.806
13.9132	0.834
13.9465	0.851
13.9799	0.865
14.0132	0.869
14.0466	0.868
14.0799	0.864
14.1133	0.859
14.1467	0.851
14.18	0.827
14.2134	0.796
14.2467	0.743
14.2801	0.668
14.3134	0.622
14.3468	0.605
14.3802	0.617
14.4135	0.649
14.4469	0.678
14.4802	0.699
14.5136	0.706
14.5469	0.7
14.5803	0.668
14.6137	0.611
14.647	0.568
14.6804	0.56
14.7137	0.577
14.7471	0.621
14.7804	0.685
14.8138	0.732
14.8472	0.782
14.8805	0.833
14.9139	0.909
14.9472	0.881
