Infrared Spectrum: 2,4-Diamino-6-phenyl-s-triazine
Formula: C 9 H 9 N 5
CAS: 91-76-9
State: gas
Origin: EPA-IR VAPOR PHASE LIBRARY
1/CM	ABSORBANCE
501.5	0.0005804
513.074	0.0002924
524.648	0.0008164
536.222	0.0006663
547.796	0.0006819
559.37	0.000856
570.944	0.0012473
582.518	0.0016273
594.092	0.0017473
605.666	0.0022773
617.24	0.0024573
628.814	0.0013373
640.388	0.0008128
651.962	0.0006971
663.536	0.0011073
675.11	0.0018673
686.684	0.0019873
698.258	0.0033173
709.832	0.0026273
721.406	0.0016673
732.98	0.0016773
744.554	0.0020373
756.128	0.0033573
767.702	0.0043973
779.276	0.0043973
790.85	0.0025573
802.423	0.0017773
813.997	0.0019073
825.571	0.0026473
837.145	0.0028673
848.719	0.0022573
860.293	0.0020773
871.867	0.0017573
883.441	0.0017173
895.015	0.0021873
906.589	0.0017073
918.163	0.0012173
929.737	0.0011773
941.311	0.0009871
952.885	0.0007916
964.459	0.0006599
976.033	0.0006949
987.607	0.0008083
999.181	0.0006045
1010.76	0.0006966
1022.33	0.0007253
1033.9	0.0006843
1045.48	0.0008194
1057.05	0.0005012
1068.63	0.0004047
1080.2	0.0002319
1091.77	0.0001948
1103.35	0.0001727
1114.92	0.000288
1126.49	0.0002582
1138.07	0.0002083
1149.64	0.0004455
1161.22	0.0005176
1172.79	0.0008927
1184.36	0.000961
1195.94	0.0007312
1207.51	0.0007648
1219.09	0.0008693
1230.66	0.0008025
1242.23	0.0009533
1253.81	0.0009348
1265.38	0.0008522
1276.96	0.0006579
1288.53	0.0006367
1300.1	0.000552
1311.68	0.0005534
1323.25	0.000538
1334.83	0.000534
1346.4	0.000582
1357.97	0.0008365
1369.55	0.0016673
1381.12	0.0043073
1392.7	0.0126573
1404.27	0.0224173
1415.84	0.0153073
1427.42	0.0087173
1438.99	0.0036973
1450.57	0.0044873
1462.14	0.0052773
1473.71	0.0071773
1485.29	0.0023373
1496.86	0.0022673
1508.44	0.0036273
1520.01	0.0054273
1531.58	0.0086073
1543.16	0.0178973
1554.73	0.0342173
1566.31	0.0311373
1577.88	0.0218073
1589.45	0.0281873
1601.03	0.0393773
1612.6	0.0300073
1624.18	0.0132173
1635.75	0.0065873
1647.32	0.0030373
1658.9	0.0016673
1670.47	0.0011073
1682.05	0.0010373
1693.62	0.0008034
1705.19	0.0005711
1716.77	0.0005357
1728.34	0.0004994
1739.92	0.0005441
1751.49	0.0005546
1763.06	0.000444
1774.64	0.0003749
1786.21	0.000342
1797.79	0.0003615
1809.36	0.0004501
1820.93	0.0003971
1832.51	0.0003388
1844.08	0.0002974
1855.66	0.0002498
1867.23	0.0002612
1878.8	0.0002609
1890.38	0.0003081
1901.95	0.0003211
1913.53	0.0003199
1925.1	0.0002406
1936.67	0.0002007
1948.25	0.0003095
1959.82	0.0003441
1971.4	0.0002811
1982.97	0.0001945
1994.54	0.0001917
2006.12	0.0002106
2017.69	0.0002132
2029.27	0.0002118
2040.84	0.0002146
2052.41	0.0002016
2063.99	0.0001952
2075.56	0.0002614
2087.14	0.0002683
2098.71	0.0001988
2110.28	0.0001876
2121.86	0.0001468
2133.43	0.0001879
2145.01	0.0002004
2156.58	0.0002446
2168.15	0.0002624
2179.73	0.000312
2191.3	0.0002846
2202.88	0.0002705
2214.45	0.0002032
2226.02	0.0002187
2237.6	0.0002486
2249.17	0.0002477
2260.74	0.0002422
2272.32	0.0002818
2283.89	0.0001975
2295.47	0.0002149
2307.04	0.0001832
2318.61	0.0001797
2330.19	0.0001658
2341.76	0.0001339
2353.34	8.798e-05
2364.91	0.0001221
2376.48	0.0001522
2388.06	0.0001693
2399.63	0.000133
2411.21	0.000169
2422.78	0.0001857
2434.35	0.0001761
2445.93	0.0002393
2457.5	0.0002616
2469.08	0.0001958
2480.65	0.0001648
2492.22	0.0002155
2503.8	0.0002305
2515.37	0.0002054
2526.95	0.0001814
2538.52	0.0002465
2550.09	0.0002045
2561.67	0.0002263
2573.24	0.000225
2584.82	0.0002855
2596.39	0.0001781
2607.96	0.0002274
2619.54	0.000216
2631.11	0.0002351
2642.69	0.0002274
2654.26	0.0002118
2665.83	0.0001921
2677.41	0.0001508
2688.98	0.0001506
2700.56	0.00011624
2712.13	9.693e-05
2723.7	9.866e-05
2735.28	0.0001588
2746.85	0.0001698
2758.43	0.0001625
2770	0.0001547
2781.57	0.00015
2793.15	0.0001385
2804.72	3.141e-05
2816.3	7.465e-05
2827.87	0.00011111
2839.44	0.0001149
2851.02	0.00010358
2862.59	0.0001288
2874.17	0.0001569
2885.74	6.683e-05
2897.31	0.0001552
2908.89	0.00010211
2920.46	0.0001459
2932.04	0.0001392
2943.61	0.0001186
2955.18	0.0001585
2966.76	0.0001585
2978.33	0.0001993
2989.91	0.0002463
3001.48	0.0003648
3013.05	0.0003854
3024.63	0.0004567
3036.2	0.0007192
3047.78	0.0009987
3059.35	0.0014373
3070.92	0.0018773
3082.5	0.0012473
3094.07	0.0008275
3105.65	0.0006264
3117.22	0.0004449
3128.79	0.0002896
3140.37	0.0002949
3151.94	0.0002637
3163.52	0.000243
3175.09	0.0002468
3186.66	0.0003017
3198.24	0.0002572
3209.81	0.0001823
3221.39	0.000246
3232.96	0.0001475
3244.53	0.0001558
3256.11	0.0001635
3267.68	0.0001644
3279.26	0.0001839
3290.83	0.0001966
3302.4	0.000171
3313.98	0.0001316
3325.55	0.0001591
3337.13	0.0001555
3348.7	0.0001625
3360.27	0.0001853
3371.85	0.000166
3383.42	0.0002828
3395	0.0004144
3406.57	0.0006588
3418.14	0.0011273
3429.72	0.0022373
3441.29	0.0038373
3452.86	0.0045673
3464.44	0.0034173
3476.01	0.0012673
3487.59	0.0006546
3499.16	0.0005545
3510.73	0.0006413
3522.31	0.0008135
3533.88	0.0010873
3545.46	0.0016673
3557.03	0.0020173
3568.6	0.0021673
3580.18	0.0024573
3591.75	0.0010373
3603.33	0.0005275
3614.9	0.0003566
3626.47	0.000211
3638.05	0.0002447
3649.62	0.0002808
3661.2	0.0002633
3672.77	0.0001948
3684.34	0.0002255
3695.92	0.000256
3707.49	0.0002323
3719.07	0.0001383
3730.64	0.0001536
3742.21	0.0001466
3753.79	0.0001246
3765.36	0.0002642
3776.94	0.0002291
3788.51	0.0001238
3800.08	0.00022
3811.66	0.0002222
3823.23	0.0001363
3834.81	0.0001389
3846.38	0.0001324
3857.95	0.0001998
3869.53	0.0002185
3881.1	0.0002178
3892.68	0.0001671
3904.25	0.0001901
3915.82	8.851e-05
3927.4	0.0001731
3938.97	0.0002133
3950.55	0.0002931
3962.12	0.0002522
3973.69	0.0003089
3985.27	0.0002415
3996.84	0.0003616
