Infrared Spectrum: TRIPELENNAMINE
Formula: C16 H21 N3
CAS: 91-81-6
State: SOLUTION (CS2 FOR 2-15 microns, AND C2Cl4 FOR 5-7.2 microns)
Boiling point: 167-172 C AT 0.1 mmHg
Class: COBLENTZ III
Instrument: PERKIN-ELMER 21 (GRATING)
Instrument parameters: FILTER AT ABOUT 10 MICRONS
Sampling: TRANSMISSION
Path length: 0.1 CM
Resolution: 2
1/CM	TRANSMITTANCE
4000	0.9758
3991	0.976
3982	0.9763
3973	0.9766
3964	0.977
3955	0.9773
3946	0.9775
3937	0.978
3928	0.9783
3919	0.9786
3910	0.979
3901	0.9793
3892	0.9797
3883	0.9801
3874	0.9804
3865	0.9808
3856	0.9812
3847	0.9815
3838	0.9818
3829	0.9821
3820	0.9825
3811	0.9828
3802	0.9832
3793	0.9835
3784	0.9838
3775	0.9841
3766	0.9842
3757	0.9844
3748	0.9846
3739	0.9846
3730	0.9848
3721	0.9849
3712	0.9851
3703	0.9851
3694	0.9851
3685	0.9851
3676	0.9851
3667	0.9851
3658	0.985
3649	0.9849
3640	0.9848
3631	0.9848
3622	0.9847
3613	0.985
3604	0.9866
3595	0.9881
3586	0.9906
3577	0.9939
3568	0.9953
3559	0.9965
3550	0.997
3541	0.9955
3532	0.994
3523	0.9924
3514	0.9906
3505	0.9888
3496	0.987
3487	0.9862
3478	0.9856
3469	0.9851
3460	0.9846
3451	0.984
3442	0.9836
3433	0.983
3424	0.9828
3415	0.9828
3406	0.9828
3397	0.9828
3388	0.9827
3379	0.9825
3370	0.9825
3361	0.9821
3352	0.9818
3343	0.9815
3334	0.9812
3325	0.9808
3316	0.9807
3307	0.9806
3298	0.9804
3289	0.9803
3280	0.98
3271	0.9795
3262	0.9789
3253	0.9783
3244	0.9771
3235	0.9761
3226	0.9749
3217	0.9735
3208	0.9718
3199	0.9703
3190	0.9689
3181	0.9678
3172	0.9668
3163	0.9659
3154	0.9648
3145	0.9636
3136	0.9616
3127	0.9582
3118	0.9453
3109	0.9107
3100	0.8849
3091	0.859
3082	0.8328
3073	0.8065
3064	0.7864
3055	0.7842
3046	0.7821
3037	0.7525
3028	0.7304
3019	0.7325
3010	0.7411
3001	0.7496
2992	0.7476
2983	0.6512
2974	0.5558
2965	0.5488
2956	0.5444
2947	0.5285
2938	0.5159
2929	0.5355
2920	0.5787
2911	0.6188
2902	0.6327
2893	0.6437
2884	0.6503
2875	0.6555
2866	0.6586
2857	0.6408
2848	0.6436
2839	0.659
2830	0.6638
2821	0.6308
2812	0.5721
2803	0.5591
2794	0.5614
2785	0.5482
2776	0.4944
2767	0.4618
2758	0.5689
2749	0.6926
2740	0.7434
2731	0.7817
2722	0.8088
2713	0.8348
2704	0.8647
2695	0.8864
2686	0.9036
2677	0.9221
2668	0.9312
2659	0.9368
2650	0.9413
2641	0.9449
2632	0.9468
2623	0.9532
2614	0.9571
2605	0.9581
2596	0.9594
2587	0.9611
2578	0.9648
2569	0.9692
2560	0.97
2551	0.9682
2542	0.9661
2533	0.9636
2524	0.9612
2515	0.959
2506	0.9574
2497	0.9563
2488	0.9558
2479	0.9571
2470	0.9607
2461	0.9648
2452	0.9686
2443	0.9699
2434	0.9712
2425	0.9725
2416	0.9741
2407	0.9753
2398	0.9763
2389	0.9766
2380	0.9762
2371	0.9764
2362	0.9785
2353	0.9812
2344	0.9807
2335	0.9814
2326	0.983
2317	0.9858
2308	0.9891
2299	0.9921
2290	0.9951
2281	0.9982
2272	0.9992
2263	0.9946
2254	0.9887
2245	0.9831
2236	0.9847
2227	0.9881
2218	0.9904
2209	0.9896
2200	0.9885
2191	0.9904
2182	0.9927
2173	0.995
2164	0.9968
2155	0.9985
2146	1
2137	1.0017
2128	1.0028
2119	1.0038
2110	1.0045
2101	1.0049
2092	1.0045
2083	1.0028
2074	0.9925
2065	0.9901
2056	0.9828
2047	0.9773
2038	0.9754
2029	0.9787
2020	0.9817
2011	0.9836
2002	0.9849
1993	0.9857
1984	0.9848
1975	0.984
1966	0.9817
1957	0.9785
1948	0.9741
1939	0.957
1930	0.9628
1921	0.9664
1912	0.9694
1903	0.9704
1894	0.971
1885	0.9718
1876	0.9728
1867	0.9731
1858	0.9744
1849	0.9767
1840	0.9797
1831	0.9821
1822	0.9733
1813	0.96
1804	0.9598
1795	0.9632
1786	0.9728
1777	0.9771
1768	0.9765
1759	0.9748
1750	0.9716
1741	0.9675
1732	0.9674
1723	0.9675
1714	0.9785
1705	0.9818
1696	0.9818
1687	0.9807
1678	0.9783
1669	0.9742
1660	0.9692
1651	0.9617
1642	0.9481
1633	0.9214
1624	0.8228
1615	0.5883
1606	0.2817
1597	0.1165
1588	0.4479
1579	0.6561
1570	0.6325
1561	0.6214
1552	0.8464
1543	0.8732
1534	0.8993
1525	0.8991
1516	0.8401
1507	0.5286
1498	0.1086
1489	0.1534
1480	0.5194
1471	0.5693
1462	0.5158
1453	0.4369
1444	0.3058
1435	0.3462
1426	0.6122
1417	0.8436
1408	0.874
1399	0.844
1390	0.8239
1381	0.7446
1372	0.7044
1363	0.5051
1354	0.5279
1345	0.773
1336	0.7254
1327	0.5704
1318	0.626
1309	0.6901
1300	0.5992
1291	0.6064
1282	0.5875
1273	0.617
1264	0.6436
1255	0.6105
1246	0.5397
1237	0.5786
1228	0.7318
1219	0.8142
1210	0.7225
1201	0.7194
1192	0.7315
1183	0.8036
1174	0.7501
1165	0.553
1156	0.5595
1147	0.5994
1138	0.8176
1129	0.9234
1120	0.9346
1111	0.9268
1102	0.8813
1093	0.7345
1084	0.8648
1075	0.8267
1066	0.858
1057	0.6828
1048	0.6364
1039	0.6842
1030	0.7018
1021	0.7321
1012	0.6982
1003	0.7807
994	0.8334
985	0.8105
976	0.5638
967	0.8427
958	0.8004
949	0.6767
940	0.7758
931	0.8264
922	0.9259
913	0.9515
904	0.961
895	0.9481
886	0.9574
877	0.951
868	0.9516
859	0.9207
850	0.9188
841	0.9275
832	0.9274
823	0.9465
814	0.9411
805	0.9288
796	0.9264
787	0.9041
778	0.7991
769	0.3388
760	0.6705
751	0.8721
742	0.8277
733	0.4252
724	0.3704
715	0.8491
706	0.8925
697	0.5643
688	0.8818
679	0.9796
