Infrared Spectrum: 2-(N-Ethyl-m-toluidino)ethanol
Formula: C11 H17 N O
CAS: 91-88-3
State: SOLUTION (10% CCl4 FOR 3800-1335, 10% CS2 FOR 1335-400 CM^-^1)
Class: COBLENTZ II
Instrument: DOW KBr FOREPRISM-GRATING
Instrument parameters: BLAZED AT 3.5, 12.0, 20.0 MICRON AND CHANGED AT 5.0, 7.5, 14.9 MICRON
Sampling: TRANSMISSION
Path length: 0.011 CM, 0.011 CM
Resolution: 2
Origin: DOW CHEMICAL COMPANY
1/CM	TRANSMITTANCE
3800	0.8715
3791	0.87
3782	0.8683
3773	0.8665
3764	0.865
3755	0.8638
3746	0.8613
3737	0.8586
3728	0.8566
3719	0.8544
3710	0.8512
3701	0.8455
3692	0.8348
3683	0.8264
3674	0.8225
3665	0.8202
3656	0.8176
3647	0.7511
3638	0.6949
3629	0.7041
3620	0.718
3611	0.7321
3602	0.7228
3593	0.7017
3584	0.6837
3575	0.6619
3566	0.6407
3557	0.6209
3548	0.6067
3539	0.5922
3530	0.5764
3521	0.5647
3512	0.5537
3503	0.5429
3494	0.5298
3485	0.5166
3476	0.5048
3467	0.4937
3458	0.4835
3449	0.4766
3440	0.473
3431	0.4703
3422	0.4681
3413	0.4667
3404	0.468
3395	0.4699
3386	0.4739
3377	0.4799
3368	0.4873
3359	0.4949
3350	0.5034
3341	0.5141
3332	0.5254
3323	0.5376
3314	0.5499
3305	0.5621
3296	0.5744
3287	0.5864
3278	0.5984
3269	0.6112
3260	0.6254
3251	0.64
3242	0.6548
3233	0.6708
3224	0.6878
3215	0.7008
3206	0.7132
3197	0.7244
3188	0.7338
3179	0.7415
3170	0.7492
3161	0.7558
3152	0.7615
3143	0.7661
3134	0.7691
3125	0.7672
3116	0.7542
3107	0.7328
3098	0.705
3089	0.6657
3080	0.6606
3071	0.6739
3062	0.6041
3053	0.5046
3044	0.486
3035	0.5296
3026	0.5768
3017	0.6085
3008	0.6207
2999	0.5544
2990	0.3321
2981	0.1721
2972	0.1423
2963	0.1754
2954	0.2184
2945	0.2244
2936	0.2127
2927	0.1954
2918	0.2407
2909	0.2919
2900	0.2971
2891	0.2819
2882	0.2541
2873	0.2389
2864	0.2732
2855	0.3078
2846	0.3337
2837	0.4349
2828	0.5524
2819	0.6041
2810	0.6307
2801	0.6825
2792	0.7289
2783	0.749
2774	0.7593
2765	0.7658
2756	0.7697
2747	0.7739
2738	0.7761
2729	0.7701
2720	0.775
2711	0.7815
2702	0.7861
2693	0.7894
2684	0.7917
2675	0.7944
2666	0.7972
2657	0.8001
2648	0.8033
2639	0.8061
2630	0.8089
2621	0.8112
2612	0.8122
2603	0.8126
2594	0.8128
2585	0.8128
2576	0.8128
2567	0.8134
2558	0.8144
2549	0.8155
2540	0.8167
2531	0.8184
2522	0.82
2513	0.8216
2504	0.8231
2495	0.8246
2486	0.8261
2477	0.8275
2468	0.8275
2459	0.8265
2450	0.8256
2441	0.8251
2432	0.8255
2423	0.8258
2414	0.8268
2405	0.8287
2396	0.8305
2387	0.8321
2378	0.8339
2369	0.8351
2360	0.8359
2351	0.8367
2342	0.8375
2333	0.8378
2324	0.8382
2315	0.8384
2306	0.8357
2297	0.8345
2288	0.8364
2279	0.8381
2270	0.8393
2261	0.8403
2252	0.8412
2243	0.8421
2234	0.841
2225	0.8393
2216	0.8383
2207	0.838
2198	0.8382
2189	0.8383
2180	0.8385
2171	0.8389
2162	0.8394
2153	0.84
2144	0.8408
2135	0.8416
2126	0.8417
2117	0.8412
2108	0.8394
2099	0.8375
2090	0.8362
2081	0.835
2072	0.8344
2063	0.8339
2054	0.8337
2045	0.8334
2036	0.8331
2027	0.8331
2018	0.8334
2009	0.8343
2000	0.8458
1991	0.8543
1982	0.8564
1973	0.8571
1964	0.857
1955	0.8559
1946	0.8558
1937	0.852
1928	0.8412
1919	0.8255
1910	0.8053
1901	0.8217
1892	0.8355
1883	0.8416
1874	0.8446
1865	0.8462
1856	0.8464
1847	0.8464
1838	0.8451
1829	0.8427
1820	0.8393
1811	0.8304
1802	0.8263
1793	0.8295
1784	0.8323
1775	0.8338
1766	0.8336
1757	0.8323
1748	0.8284
1739	0.823
1730	0.8157
1721	0.808
1712	0.8017
1703	0.7951
1694	0.7888
1685	0.7818
1676	0.7825
1667	0.7796
1658	0.7719
1649	0.7612
1640	0.7211
1631	0.6248
1622	0.3875
1613	0.1212
1604	0.011
1595	0.1281
1586	0.1645
1577	0.3
1568	0.5521
1559	0.6083
1550	0.6273
1541	0.6115
1532	0.5445
1523	0.4514
1514	0.3482
1505	0.1088
1496	0.0173
1487	0.3437
1478	0.3593
1469	0.3341
1460	0.3108
1451	0.2913
1442	0.3852
1433	0.4637
1424	0.5185
1415	0.5255
1406	0.434
1397	0.236
1388	0.2263
1379	0.1836
1370	0.243
1361	0.1508
1352	0.1945
1343	0.3094
1334	0.3488
1325	0.4434
1316	0.5022
1307	0.5191
1298	0.519
1289	0.4219
1280	0.2372
1271	0.241
1262	0.3812
1253	0.4446
1244	0.4517
1235	0.4773
1226	0.4751
1217	0.5224
1208	0.3545
1199	0.314
1190	0.4231
1181	0.1566
1172	0.2506
1163	0.4217
1154	0.5866
1145	0.6092
1136	0.5151
1127	0.4972
1118	0.6557
1109	0.6769
1100	0.5602
1091	0.5227
1082	0.2968
1073	0.2374
1064	0.2918
1055	0.161
1046	0.1432
1037	0.19
1028	0.1624
1019	0.2492
1010	0.3947
1001	0.4847
992	0.4408
983	0.7004
974	0.7569
965	0.7685
956	0.7665
947	0.7508
938	0.6932
929	0.7188
920	0.7455
911	0.7537
902	0.7955
893	0.8026
884	0.783
875	0.7067
866	0.6225
857	0.6081
848	0.61
839	0.5295
830	0.7146
821	0.7668
812	0.7711
803	0.6514
794	0.559
785	0.5657
776	0.2213
767	0.035
758	0.6803
749	0.7918
740	0.8168
731	0.8216
722	0.8126
713	0.7372
704	0.5871
695	0.1772
686	0.7126
677	0.7818
668	0.7987
659	0.7969
650	0.7735
641	0.7844
632	0.7855
623	0.7833
614	0.7739
605	0.759
596	0.7393
587	0.7178
578	0.7056
569	0.7271
560	0.7276
551	0.7211
542	0.7171
533	0.7175
524	0.7199
515	0.7425
506	0.7589
497	0.7641
488	0.7634
479	0.7554
470	0.7344
461	0.7131
452	0.6814
443	0.6198
434	0.6534
425	0.6634
416	0.6669
407	0.6693
398	0.6675
389	0.6636
380	0.6628
