Infrared Spectrum: PYRILIAMINE
Formula: C17 H23 N3 O
CAS: 91-84-9
State: SOLUTION 1.3% (CS2 FOR 2-6.2 AND 7.2-15 microns, AND C2Cl4 FOR 6.2-7.2 microns)
Boiling point: 201 C
Class: COBLENTZ III
Instrument: PERKIN-ELMER 21 (GRATING)
Instrument parameters: FILTER AT ABOUT 10 MICRONS
Sampling: TRANSMISSION
Path length: 0.1 CM
Resolution: 2
1/CM	TRANSMITTANCE
4000	0.9442
3991	0.9427
3982	0.9413
3973	0.9408
3964	0.9404
3955	0.9401
3946	0.9397
3937	0.9396
3928	0.9397
3919	0.9399
3910	0.9401
3901	0.9408
3892	0.9418
3883	0.9428
3874	0.9439
3865	0.9446
3856	0.9451
3847	0.9455
3838	0.946
3829	0.9463
3820	0.9468
3811	0.9471
3802	0.9475
3793	0.9478
3784	0.9481
3775	0.9484
3766	0.9487
3757	0.949
3748	0.9495
3739	0.9499
3730	0.9504
3721	0.9508
3712	0.9513
3703	0.9518
3694	0.952
3685	0.9521
3676	0.9524
3667	0.9525
3658	0.9528
3649	0.9531
3640	0.9532
3631	0.9534
3622	0.9536
3613	0.9538
3604	0.9536
3595	0.953
3586	0.9524
3577	0.9521
3568	0.9518
3559	0.954
3550	0.9566
3541	0.9588
3532	0.9595
3523	0.96
3514	0.9601
3505	0.9597
3496	0.9592
3487	0.9588
3478	0.9583
3469	0.9578
3460	0.9573
3451	0.9567
3442	0.9562
3433	0.9556
3424	0.955
3415	0.9542
3406	0.9534
3397	0.9525
3388	0.9518
3379	0.9513
3370	0.9511
3361	0.9511
3352	0.9513
3343	0.9515
3334	0.9517
3325	0.9518
3316	0.9518
3307	0.9517
3298	0.9514
3289	0.9512
3280	0.9507
3271	0.9501
3262	0.9495
3253	0.9485
3244	0.9474
3235	0.9462
3226	0.945
3217	0.9437
3208	0.9425
3199	0.9411
3190	0.9394
3181	0.9375
3172	0.9336
3163	0.9282
3154	0.9258
3145	0.9246
3136	0.9237
3127	0.9228
3118	0.9182
3109	0.908
3100	0.8751
3091	0.8511
3082	0.8365
3073	0.7993
3064	0.7787
3055	0.7694
3046	0.7589
3037	0.7451
3028	0.7261
3019	0.7058
3010	0.6576
3001	0.5885
2992	0.5649
2983	0.5616
2974	0.5451
2965	0.4381
2956	0.399
2947	0.3706
2938	0.3298
2929	0.3198
2920	0.3521
2911	0.389
2902	0.4248
2893	0.4482
2884	0.478
2875	0.508
2866	0.5382
2857	0.5471
2848	0.5346
2839	0.5248
2830	0.5198
2821	0.4815
2812	0.4351
2803	0.4293
2794	0.4436
2785	0.4549
2776	0.4354
2767	0.3874
2758	0.3792
2749	0.4691
2740	0.5716
2731	0.6745
2722	0.73
2713	0.7582
2704	0.7878
2695	0.8199
2686	0.8383
2677	0.8593
2668	0.8771
2659	0.8882
2650	0.8955
2641	0.8993
2632	0.9027
2623	0.9063
2614	0.9109
2605	0.9164
2596	0.917
2587	0.9171
2578	0.9173
2569	0.9186
2560	0.9218
2551	0.9234
2542	0.9191
2533	0.9102
2524	0.9061
2515	0.9061
2506	0.9084
2497	0.9102
2488	0.9118
2479	0.9127
2470	0.913
2461	0.9145
2452	0.9193
2443	0.9244
2434	0.9289
2425	0.9308
2416	0.9306
2407	0.9304
2398	0.9304
2389	0.9316
2380	0.9328
2371	0.9342
2362	0.9352
2353	0.9361
2344	0.9368
2335	0.9375
2326	0.9378
2317	0.9375
2308	0.9371
2299	0.9371
2290	0.9371
2281	0.9374
2272	0.9378
2263	0.9367
2254	0.9346
2245	0.9342
2236	0.9363
2227	0.9387
2218	0.9408
2209	0.9415
2200	0.9404
2191	0.9388
2182	0.9394
2173	0.9404
2164	0.941
2155	0.9416
2146	0.942
2137	0.9424
2128	0.9432
2119	0.9418
2110	0.9367
2101	0.9321
2092	0.9315
2083	0.9318
2074	0.9203
2065	0.9118
2056	0.9135
2047	0.9245
2038	0.9275
2029	0.927
2020	0.9324
2011	0.9383
2002	0.9389
1993	0.938
1984	0.9365
1975	0.935
1966	0.9375
1957	0.9447
1948	0.9423
1939	0.9335
1930	0.9254
1921	0.9266
1912	0.9238
1903	0.9255
1894	0.9178
1885	0.9202
1876	0.9295
1867	0.9278
1858	0.9218
1849	0.9293
1840	0.9368
1831	0.9375
1822	0.9406
1813	0.9427
1804	0.9361
1795	0.933
1786	0.9349
1777	0.9351
1768	0.9328
1759	0.9273
1750	0.9218
1741	0.9213
1732	0.9248
1723	0.9318
1714	0.9368
1705	0.9347
1696	0.9306
1687	0.9293
1678	0.9243
1669	0.9206
1660	0.9177
1651	0.9093
1642	0.8885
1633	0.8407
1624	0.729
1615	0.3392
1606	0.1701
1597	0.0758
1588	0.2584
1579	0.4874
1570	0.6053
1561	0.4856
1552	0.7656
1543	0.8061
1534	0.8185
1525	0.7545
1516	0.0675
1507	0.1578
1498	0.0546
1489	0.1004
1480	0.2884
1471	0.383
1462	0.2777
1453	0.4223
1444	0.2034
1435	0.2701
1426	0.4512
1417	0.6608
1408	0.7949
1399	0.7925
1390	0.7164
1381	0.6585
1372	0.6088
1363	0.4271
1354	0.3712
1345	0.5762
1336	0.6404
1327	0.4671
1318	0.4686
1309	0.5109
1300	0.31
1291	0.3488
1282	0.3376
1273	0.4257
1264	0.44
1255	0.283
1246	0.0495
1237	0.0992
1228	0.3061
1219	0.5182
1210	0.5967
1201	0.5941
1192	0.6083
1183	0.6615
1174	0.3397
1165	0.309
1156	0.4066
1147	0.4585
1138	0.7108
1129	0.8459
1120	0.8545
1111	0.7778
1102	0.72
1093	0.5648
1084	0.7771
1075	0.827
1066	0.8171
1057	0.6014
1048	0.4239
1039	0.1598
1030	0.5476
1021	0.6117
1012	0.6289
1003	0.6865
994	0.7485
985	0.78
976	0.4367
967	0.7598
958	0.703
949	0.6328
940	0.6934
931	0.7497
922	0.7554
913	0.7788
904	0.9418
895	0.9163
886	0.8284
877	0.8554
868	0.875
859	0.8302
850	0.785
841	0.6956
832	0.6239
823	0.5252
814	0.4949
805	0.5392
796	0.779
787	0.7928
778	0.7174
769	0.3089
760	0.4895
751	0.7599
742	0.7811
733	0.5497
724	0.8061
715	0.9171
706	0.9268
697	0.9171
688	0.9474
679	0.9567
670	0.9614
