Infrared Spectrum: N,N-Di(2-hydroxyethyl)-m-toluidine
Formula: C 11 H 17 N O 2
CAS: 91-99-6
State: gas
Origin: EPA-IR VAPOR PHASE LIBRARY
1/CM	ABSORBANCE
501.5	0.0010068
513.074	0.0012579
524.648	0.0012071
536.222	0.0011013
547.796	0.0010394
559.37	0.0008877
570.944	0.0007731
582.518	0.0007944
594.092	0.0007477
605.666	0.0008314
617.24	0.0006889
628.814	0.0006562
640.388	0.0005026
651.962	0.0005498
663.536	0.0006712
675.11	0.0008973
686.684	0.002138
698.258	0.003148
709.832	0.002268
721.406	0.001408
732.98	0.0010078
744.554	0.0012845
756.128	0.002868
767.702	0.004658
779.276	0.002978
790.85	0.002328
802.423	0.002218
813.997	0.001608
825.571	0.001678
837.145	0.002348
848.719	0.002508
860.293	0.002338
871.867	0.002148
883.441	0.001908
895.015	0.002128
906.589	0.002208
918.163	0.002448
929.737	0.002488
941.311	0.002338
952.885	0.002358
964.459	0.002608
976.033	0.003048
987.607	0.003998
999.181	0.006258
1010.76	0.009068
1022.33	0.010398
1033.9	0.011398
1045.48	0.010958
1057.05	0.009658
1068.63	0.009738
1080.2	0.007078
1091.77	0.004948
1103.35	0.004028
1114.92	0.004008
1126.49	0.004558
1138.07	0.005588
1149.64	0.006008
1161.22	0.006478
1172.79	0.007148
1184.36	0.005478
1195.94	0.003798
1207.51	0.003738
1219.09	0.003898
1230.66	0.004218
1242.23	0.004828
1253.81	0.004888
1265.38	0.004658
1276.96	0.004278
1288.53	0.004048
1300.1	0.003888
1311.68	0.004148
1323.25	0.004938
1334.83	0.006198
1346.4	0.007788
1357.97	0.008048
1369.55	0.006618
1381.12	0.005378
1392.7	0.004588
1404.27	0.003528
1415.84	0.002808
1427.42	0.003058
1438.99	0.004108
1450.57	0.004398
1462.14	0.004278
1473.71	0.004908
1485.29	0.007938
1496.86	0.009668
1508.44	0.005488
1520.01	0.003708
1531.58	0.002988
1543.16	0.002618
1554.73	0.002588
1566.31	0.003778
1577.88	0.006948
1589.45	0.010048
1601.03	0.014568
1612.6	0.008848
1624.18	0.003078
1635.75	0.001408
1647.32	0.0008412
1658.9	0.0006004
1670.47	0.0005482
1682.05	0.0004779
1693.62	0.0005015
1705.19	0.0004914
1716.77	0.00045452
1728.34	0.00042263
1739.92	0.0004167
1751.49	0.00042084
1763.06	0.00036816
1774.64	0.00034993
1786.21	0.00038032
1797.79	0.000364712
1809.36	0.00038136
1820.93	0.00038586
1832.51	0.000360542
1844.08	0.0003357
1855.66	0.0003334
1867.23	0.0003222
1878.8	0.0003461
1890.38	0.000367643
1901.95	0.00044412
1913.53	0.0005161
1925.1	0.00043918
1936.67	0.00037024
1948.25	0.0002909
1959.82	0.000237
1971.4	0.000235
1982.97	0.000246
1994.54	0.000225
2006.12	0.000235
2017.69	0.000237
2029.27	0.0002623
2040.84	0.0002823
2052.41	0.0002986
2063.99	0.0002966
2075.56	0.0002949
2087.14	0.0002657
2098.71	0.000243
2110.28	0.000218
2121.86	0.00023
2133.43	0.00021
2145.01	0.000217
2156.58	0.000183
2168.15	0.000224
2179.73	0.000245
2191.3	0.000254
2202.88	0.000228
2214.45	0.0002
2226.02	0.000209
2237.6	0.000214
2249.17	0.000184
2260.74	0.000238
2272.32	0.00024
2283.89	0.000219
2295.47	0.000234
2307.04	0.000217
2318.61	0.000229
2330.19	0.000241
2341.76	0.0002616
2353.34	0.0002634
2364.91	0.0002962
2376.48	0.0002833
2388.06	0.000256
2399.63	0.0002716
2411.21	0.0003134
2422.78	0.0003069
2434.35	0.0003062
2445.93	0.0002629
2457.5	0.0002992
2469.08	0.0002722
2480.65	0.0002996
2492.22	0.0002784
2503.8	0.0003245
2515.37	0.0003016
2526.95	0.000258
2538.52	0.0003179
2550.09	0.0003407
2561.67	0.00037649
2573.24	0.00035129
2584.82	0.0002951
2596.39	0.0003019
2607.96	0.0003408
2619.54	0.0003478
2631.11	0.00034821
2642.69	0.00040157
2654.26	0.00045686
2665.83	0.0005092
2677.41	0.0005492
2688.98	0.000625
2700.56	0.0006873
2712.13	0.0007538
2723.7	0.0008259
2735.28	0.0008901
2746.85	0.0009572
2758.43	0.0009772
2770	0.0010035
2781.57	0.0011953
2793.15	0.001418
2804.72	0.001888
2816.3	0.002638
2827.87	0.003598
2839.44	0.004408
2851.02	0.004948
2862.59	0.005998
2874.17	0.008078
2885.74	0.009448
2897.31	0.008508
2908.89	0.007858
2920.46	0.009478
2932.04	0.011188
2943.61	0.010398
2955.18	0.009578
2966.76	0.008008
2978.33	0.005558
2989.91	0.003568
3001.48	0.002548
3013.05	0.002328
3024.63	0.002888
3036.2	0.003448
3047.78	0.004018
3059.35	0.003618
3070.92	0.002478
3082.5	0.001828
3094.07	0.001518
3105.65	0.0010359
3117.22	0.0006928
3128.79	0.0003235
3140.37	0.0002646
3151.94	0.000185
3163.52	0.000181
3175.09	0.000217
3186.66	0.000109
3198.24	0.000133
3209.81	8.9e-05
3221.39	0.000124
3232.96	4.2e-05
3244.53	8e-05
3256.11	0
3267.68	9e-05
3279.26	0.000102
3290.83	0.000204
3302.4	0.000118
3313.98	0.000122
3325.55	0.000125
3337.13	0.000125
3348.7	0.000129
3360.27	7.3e-05
3371.85	0.00011
3383.42	0.0002631
3395	0.00023
3406.57	0.0002751
3418.14	0.0002956
3429.72	0.000251
3441.29	0.0003109
3452.86	0.0002581
3464.44	0.0003194
3476.01	0.0003208
3487.59	0.00038124
3499.16	0.00038374
3510.73	0.0005194
3522.31	0.0006178
3533.88	0.0008215
3545.46	0.0010586
3557.03	0.0012232
3568.6	0.0012291
3580.18	0.0013322
3591.75	0.0012149
3603.33	0.0011645
3614.9	0.001224
3626.47	0.0013022
3638.05	0.0011762
3649.62	0.001378
3661.2	0.002148
3672.77	0.002228
3684.34	0.0013018
3695.92	0.0006896
3707.49	0.00045449
3719.07	0.00038445
3730.64	0.000301
3742.21	0.000241
3753.79	0.000216
3765.36	0.000261
3776.94	0.000142
3788.51	0.00016
3800.08	0.000108
3811.66	0.000163
3823.23	0.0001
3834.81	0.000152
3846.38	9e-05
3857.95	0.00016
3869.53	8.3e-05
3881.1	0.000161
3892.68	0.000112
3904.25	6.4e-05
3915.82	0.000102
3927.4	0.000113
3938.97	0.000138
3950.55	0.000158
3962.12	4e-05
3973.69	0.000105
3985.27	8.8e-05
3996.84	1e-05
