Infrared Spectrum: 3,3'-Dichlorobenzidine
Formula: C 12 H 10 Cl 2 N 2
CAS: 91-94-1
State: gas
Instrument: HP-GC/MS/IRD
Origin: NIST Mass Spectrometry Data Center
1/CM	ABSORBANCE
550	0.006184
562	0.005524
574	0.002684
586	0.001916
598	0.001852
610	0.002044
622	0.002196
634	0.002856
646	0.003712
658	0.004856
670	0.006016
682	0.00648
694	0.008864
706	0.008724
718	0.006708
730	0.005228
742	0.005052
754	0.004336
766	0.003088
778	0.002336
790	0.002976
802	0.007228
814	0.007216
826	0.003032
838	0.002348
850	0.001828
862	0.002748
874	0.004336
886	0.002444
898	0.000976
910	0.00046
922	0.000424
934	0.000604
946	0.00056
958	0.000396
970	0.000364
982	0.000244
994	0.000188
1006	0.000116
1018	0.000248
1030	0.001444
1042	0.004032
1054	0.00336
1066	0.002404
1078	0.004012
1090	0.005412
1102	0.002696
1114	0.00152
1126	0.00096
1138	0.001
1150	0.003428
1162	0.002928
1174	0.000464
1186	0.000112
1198	4e-06
1210	0.0001
1222	0.00054
1234	0.001944
1246	0.002624
1258	0.001716
1270	0.003896
1282	0.009264
1294	0.008616
1306	0.009792
1318	0.004564
1330	0.001024
1342	0.000212
1354	0.00024
1366	0.00082
1378	0.001372
1390	0.00152
1402	0.000704
1414	0.00108
1426	0.00112
1438	0.000988
1450	0.001784
1462	0.005596
1474	0.0168
1486	0.03188
1498	0.0318
1510	0.006484
1522	0.003532
1534	0.0032
1546	0.003276
1558	0.003368
1570	0.0029
1582	0.002832
1594	0.003996
1606	0.007636
1618	0.019768
1630	0.022712
1642	0.006792
1654	0.002424
1666	0.001188
1678	0.000828
1690	0.000592
1702	0.0004
1714	0.000296
1726	0.000248
1738	0.000408
1750	0.000512
1762	0.000368
1774	0.000204
1786	8.4e-05
1798	2e-05
1810	3.6e-05
1822	4e-06
1834	0
1846	7.2e-05
1858	0.000256
1870	0.000484
1882	0.000216
1894	4e-05
1906	1.2e-05
1918	1.2e-05
1930	4.4e-05
1942	6e-05
1954	9.2e-05
1966	0.000108
1978	0.00014
1990	0.000132
2002	0.000148
2014	0.000148
2026	0.000136
2038	0.000148
2050	0.000144
2062	0.00016
2074	0.000132
2086	0.000128
2098	0.00012
2110	0.00014
2122	0.000156
2134	0.000176
2146	0.00016
2158	0.00014
2170	0.000172
2182	0.000176
2194	0.000188
2206	0.000152
2218	0.000128
2230	0.000136
2242	0.000128
2254	0.0001
2266	0.000108
2278	0.000124
2290	0.000148
2302	0.000144
2314	0.000204
2326	0.00022
2338	0.000228
2350	0.000236
2362	0.000236
2374	0.000156
2386	0.000128
2398	0.000108
2410	0.000124
2422	0.00014
2434	0.000128
2446	0.000168
2458	0.000184
2470	0.00014
2482	0.000148
2494	0.000152
2506	0.000132
2518	0.000188
2530	0.000208
2542	0.000184
2554	0.000204
2566	0.000256
2578	0.000248
2590	0.000284
2602	0.000332
2614	0.000276
2626	0.000192
2638	0.000168
2650	0.00014
2662	0.000188
2674	0.000168
2686	0.000168
2698	0.000148
2710	0.000136
2722	0.000128
2734	0.000132
2746	0.0001
2758	0.000108
2770	0.000124
2782	0.00014
2794	0.000132
2806	0.0001
2818	0.00014
2830	0.000172
2842	0.000156
2854	0.000156
2866	0.000192
2878	0.0002
2890	0.00022
2902	0.000168
2914	0.000176
2926	0.0002
2938	0.000156
2950	0.000128
2962	0.000216
2974	0.000336
2986	0.00042
2998	0.000576
3010	0.000904
3022	0.002056
3034	0.004616
3046	0.001988
3058	0.001804
3070	0.001892
3082	0.001416
3094	0.000784
3106	0.000444
3118	0.000376
3130	0.000288
3142	0.00024
3154	0.000224
3166	0.00028
3178	0.000316
3190	0.000452
3202	0.000504
3214	0.00048
3226	0.000324
3238	0.000324
3250	0.000252
3262	0.000188
3274	0.000188
3286	0.000112
3298	0.000108
3310	0.000156
3322	0.000168
3334	0.000212
3346	0.000244
3358	0.0003
3370	0.000472
3382	0.000868
3394	0.00228
3406	0.006308
3418	0.005924
3430	0.002572
3442	0.000872
3454	0.000652
3466	0.000832
3478	0.001396
3490	0.002748
3502	0.003736
3514	0.003068
3526	0.001872
3538	0.000764
3550	0.000368
3562	0.00026
3574	0.000188
3586	0.000168
3598	0.000136
3610	0.000148
3622	0.000136
3634	0.000152
3646	0.0002
3658	0.000192
3670	0.000208
3682	0.000232
3694	0.0002
3706	0.000192
3718	0.0002
3730	0.000212
3742	0.000204
3754	0.000212
3766	0.000256
3778	0.000264
3790	0.000212
3802	0.000248
3814	0.000288
3826	0.000276
3838	0.000428
