Infrared Spectrum: Cholest-5-ene, 3Beta-chloro
Formula: C27 H45 Cl
CAS: 910-31-6
State: SOLUTION (10% CCl4 FOR 3800-1330, 10% CS2 FOR 1330-460 CM^-^1)
Class: COBLENTZ II
Instrument: DOW KBr FOREPRISM-GRATING
Instrument parameters: BLAZED AT 3.5, 12.0, 20.0 MICRON AND CHANGED AT 5.0, 7.5, 14.9 MICRON
Sampling: TRANSMISSION
Path length: 0.010 CM, 0.010 CM
Resolution: 2
Origin: DOW CHEMICAL COMPANY
1/CM	TRANSMITTANCE
3800	0.8574
3791	0.8582
3782	0.8586
3773	0.8588
3764	0.8588
3755	0.8588
3746	0.8586
3737	0.8584
3728	0.8585
3719	0.8588
3710	0.8591
3701	0.8594
3692	0.8597
3683	0.8598
3674	0.8598
3665	0.8597
3656	0.8597
3647	0.8597
3638	0.8597
3629	0.8596
3620	0.8595
3611	0.8594
3602	0.8593
3593	0.8592
3584	0.8591
3575	0.859
3566	0.8589
3557	0.8587
3548	0.8586
3539	0.8584
3530	0.8584
3521	0.8583
3512	0.8582
3503	0.8581
3494	0.8581
3485	0.858
3476	0.858
3467	0.8577
3458	0.8574
3449	0.857
3440	0.8567
3431	0.8564
3422	0.8561
3413	0.856
3404	0.8559
3395	0.8559
3386	0.8559
3377	0.8559
3368	0.8559
3359	0.8554
3350	0.8551
3341	0.8546
3332	0.8543
3323	0.8538
3314	0.8535
3305	0.8533
3296	0.853
3287	0.8528
3278	0.8523
3269	0.8516
3260	0.8507
3251	0.8496
3242	0.8478
3233	0.8456
3224	0.8434
3215	0.8414
3206	0.8395
3197	0.8368
3188	0.8342
3179	0.8337
3170	0.8357
3161	0.8361
3152	0.8361
3143	0.8353
3134	0.8348
3125	0.8344
3116	0.8341
3107	0.8335
3098	0.8328
3089	0.8306
3080	0.8271
3071	0.8196
3062	0.7994
3053	0.7747
3044	0.7657
3035	0.7655
3026	0.7495
3017	0.6749
3008	0.6021
2999	0.4925
2990	0.3627
2981	0.2304
2972	0.11
2963	0.0449
2954	0.0303
2945	0.029
2936	0.0325
2927	0.06
2918	0.1005
2909	0.1096
2900	0.109
2891	0.1555
2882	0.2077
2873	0.1288
2864	0.2259
2855	0.217
2846	0.2947
2837	0.4743
2828	0.6192
2819	0.7178
2810	0.763
2801	0.779
2792	0.7892
2783	0.7975
2774	0.805
2765	0.8107
2756	0.8122
2747	0.8095
2738	0.8065
2729	0.8061
2720	0.8082
2711	0.811
2702	0.8145
2693	0.8176
2684	0.82
2675	0.8198
2666	0.8185
2657	0.8182
2648	0.8202
2639	0.8255
2630	0.8286
2621	0.8301
2612	0.8303
2603	0.8317
2594	0.8332
2585	0.8352
2576	0.8374
2567	0.8396
2558	0.8418
2549	0.8437
2540	0.8455
2531	0.8473
2522	0.8491
2513	0.8507
2504	0.8524
2495	0.854
2486	0.8555
2477	0.8568
2468	0.8584
2459	0.86
2450	0.8617
2441	0.8634
2432	0.8644
2423	0.865
2414	0.8654
2405	0.8649
2396	0.8648
2387	0.8651
2378	0.8655
2369	0.8658
2360	0.8664
2351	0.8668
2342	0.8675
2333	0.868
2324	0.8686
2315	0.8693
2306	0.8701
2297	0.8708
2288	0.8716
2279	0.872
2270	0.8725
2261	0.8728
2252	0.8733
2243	0.8738
2234	0.8746
2225	0.8754
2216	0.8762
2207	0.8771
2198	0.879
2189	0.8816
2180	0.8867
2171	0.8877
2162	0.8888
2153	0.8888
2144	0.8854
2135	0.8843
2126	0.8842
2117	0.8841
2108	0.8825
2099	0.8828
2090	0.8835
2081	0.884
2072	0.885
2063	0.8861
2054	0.8871
2045	0.8878
2036	0.888
2027	0.8874
2018	0.8844
2009	0.8818
2000	0.8788
1991	0.8777
1982	0.8812
1973	0.8815
1964	0.8821
1955	0.8832
1946	0.8827
1937	0.882
1928	0.8805
1919	0.88
1910	0.88
1901	0.8803
1892	0.8804
1883	0.8807
1874	0.881
1865	0.8805
1856	0.8793
1847	0.8781
1838	0.8774
1829	0.8768
1820	0.8762
1811	0.8757
1802	0.8751
1793	0.8745
1784	0.8739
1775	0.8732
1766	0.8725
1757	0.872
1748	0.8715
1739	0.871
1730	0.8704
1721	0.8696
1712	0.8678
1703	0.866
1694	0.8635
1685	0.8602
1676	0.8368
1667	0.8355
1658	0.8604
1649	0.8635
1640	0.866
1631	0.8678
1622	0.8702
1613	0.8736
1604	0.8788
1595	0.8849
1586	0.8854
1577	0.8858
1568	0.8928
1559	0.8999
1550	0.9008
1541	0.8948
1532	0.8856
1523	0.8791
1514	0.8702
1505	0.8583
1496	0.843
1487	0.804
1478	0.5401
1469	0.3221
1460	0.4637
1451	0.5871
1442	0.5628
1433	0.7308
1424	0.8156
1415	0.8335
1406	0.8348
1397	0.8178
1388	0.5708
1379	0.4824
1370	0.6097
1361	0.7192
1352	0.7868
1343	0.7892
1334	0.805
1325	0.749
1316	0.805
1307	0.8331
1298	0.8261
1289	0.7772
1280	0.836
1271	0.8286
1262	0.8306
1253	0.8111
1244	0.8022
1235	0.8168
1226	0.8411
1217	0.766
1208	0.8168
1199	0.7894
1190	0.7933
1181	0.861
1172	0.842
1163	0.8186
1154	0.7728
1145	0.8528
1136	0.8125
1127	0.8158
1118	0.8723
1109	0.8311
1100	0.881
1091	0.8871
1082	0.8623
1073	0.8864
1064	0.8721
1055	0.8655
1046	0.8756
1037	0.87
1028	0.7857
1019	0.8181
1010	0.8019
1001	0.7784
992	0.756
983	0.8161
974	0.8316
965	0.7828
956	0.7383
947	0.8368
938	0.831
929	0.8497
920	0.8528
911	0.8504
902	0.873
893	0.8445
884	0.8149
875	0.7868
866	0.8169
857	0.8866
848	0.8603
839	0.8203
830	0.7017
821	0.632
812	0.8421
803	0.7083
794	0.8644
785	0.8878
776	0.8861
767	0.7931
758	0.7319
749	0.8663
740	0.8546
731	0.7934
722	0.6725
713	0.8631
704	0.8702
695	0.8151
686	0.891
677	0.9123
668	0.9181
659	0.9228
650	0.9138
641	0.908
632	0.8975
623	0.8595
614	0.9078
605	0.8965
596	0.8936
587	0.9011
578	0.9044
569	0.903
560	0.9082
551	0.9224
542	0.9255
533	0.9261
524	0.9301
515	0.9317
506	0.9342
497	0.9343
488	0.9275
479	0.9308
470	0.9343
