Infrared Spectrum: IMIDAZOLE-5-CARBOXAMIDE, 4-ACETAMIDO-
Formula: C6 H8 N4 O2
CAS: 91026-74-3
State: SOLID (0.9 mg / 650 mg KBr DISC)
Melting point: 217-218 C
Class: COBLENTZ III
Instrument: PERKIN-ELMER 21 (GRATING)
Instrument parameters: FILTER CHANGE AT ABOUT 1075 CM^-^1
Sampling: TRANSMISSION
Resolution: 2
Origin: SOUTHERN RESEARCH INSTITUTE
1/CM	TRANSMITTANCE
634.211	0.657
643.339	0.6511
652.467	0.6441
661.595	0.642
670.723	0.6273
679.851	0.559
688.979	0.551
698.107	0.5843
707.235	0.6909
716.362	0.7677
725.49	0.805
734.618	0.8206
743.746	0.824
752.874	0.823
762.002	0.8105
771.13	0.7918
780.258	0.727
789.386	0.731
798.514	0.7321
807.642	0.7182
816.77	0.6647
825.898	0.6476
835.026	0.6357
844.154	0.729
853.282	0.7739
862.41	0.8047
871.538	0.819
880.665	0.82
889.793	0.82
898.921	0.814
908.049	0.7979
917.177	0.7705
926.305	0.7061
935.433	0.5122
944.561	0.6651
953.689	0.6814
962.817	0.8343
971.945	0.8487
981.073	0.8326
990.201	0.8088
999.329	0.7646
1008.46	0.75
1017.58	0.7647
1026.71	0.7587
1035.84	0.751
1044.97	0.7498
1054.1	0.7353
1063.22	0.705
1072.35	0.6631
1081.48	0.645
1090.61	0.661
1099.74	0.678
1108.86	0.705
1117.99	0.694
1127.12	0.6936
1136.25	0.7145
1145.38	0.7399
1154.5	0.742
1163.63	0.738
1172.76	0.735
1181.89	0.7328
1191.02	0.7265
1200.14	0.7156
1209.27	0.6998
1218.4	0.6512
1227.53	0.5643
1236.66	0.5652
1245.78	0.6519
1254.91	0.6883
1264.04	0.66
1273.17	0.651
1282.3	0.662
1291.42	0.6561
1300.55	0.6393
1309.68	0.6096
1318.81	0.5781
1327.93	0.5431
1337.06	0.4609
1346.19	0.3424
1355.32	0.2479
1364.45	0.251
1373.57	0.2533
1382.7	0.1884
1391.83	0.1879
1400.96	0.2666
1410.09	0.3856
1419.21	0.5369
1428.34	0.6001
1437.47	0.6107
1446.6	0.5812
1455.73	0.6134
1464.85	0.6261
1473.98	0.6008
1483.11	0.5494
1492.24	0.4449
1501.37	0.4051
1510.49	0.4308
1519.62	0.507
1528.75	0.6173
1537.88	0.6377
1547.01	0.6101
1556.13	0.4034
1565.26	0.2708
1574.39	0.266
1583.52	0.264
1592.65	0.2266
1601.77	0.1573
1610.9	0.1673
1620.03	0.2424
1629.16	0.2389
1638.28	0.1989
1647.41	0.155
1656.54	0.154
1665.67	0.176
1674.8	0.1672
1683.92	0.161
1693.05	0.3866
1702.18	0.5325
1711.31	0.6452
1720.44	0.6912
1729.56	0.7413
1738.69	0.7706
1747.82	0.7947
1756.95	0.8093
1766.08	0.8207
1775.2	0.8481
1784.33	0.8684
1793.46	0.88
1802.59	0.8929
1811.72	0.9029
1820.84	0.9118
1829.97	0.9188
1839.1	0.924
1848.23	0.9277
1857.36	0.931
1866.48	0.933
1875.61	0.933
1884.74	0.932
1893.87	0.9323
1903	0.9353
1912.12	0.9368
1921.25	0.937
1930.38	0.937
1939.51	0.935
1948.63	0.933
1957.76	0.932
1966.89	0.932
1976.02	0.932
1985.15	0.932
1994.27	0.932
2003.4	0.9314
2012.53	0.931
2021.66	0.931
2030.79	0.931
2039.91	0.929
2049.04	0.928
2058.17	0.9258
2067.3	0.9244
2076.43	0.9234
2085.55	0.923
2094.68	0.923
2103.81	0.923
2112.94	0.923
2122.07	0.923
2131.19	0.923
2140.32	0.92
2149.45	0.916
2158.58	0.91
2167.71	0.905
2176.83	0.905
2185.96	0.903
2195.09	0.903
2204.22	0.905
2213.35	0.906
2222.47	0.906
2231.6	0.905
2240.73	0.902
2249.86	0.9
2258.99	0.897
2268.11	0.896
2277.24	0.894
2286.37	0.892
2295.5	0.8874
2304.62	0.88
2313.75	0.8728
2322.88	0.871
2332.01	0.8756
2341.14	0.875
2350.26	0.875
2359.39	0.8756
2368.52	0.8766
2377.65	0.877
2386.78	0.879
2395.9	0.8754
2405.03	0.871
2414.16	0.8674
2423.29	0.866
2432.42	0.8634
2441.54	0.862
2450.67	0.861
2459.8	0.8598
2468.93	0.858
2478.06	0.855
2487.18	0.854
2496.31	0.851
2505.44	0.848
2514.57	0.845
2523.7	0.845
2532.82	0.842
2541.95	0.841
2551.08	0.8364
2560.21	0.832
2569.34	0.8274
2578.46	0.827
2587.59	0.825
2596.72	0.823
2605.85	0.815
2614.97	0.8144
2624.1	0.812
2633.23	0.805
2642.36	0.7948
2651.49	0.7858
2660.61	0.783
2669.74	0.779
2678.87	0.7704
2688	0.766
2697.13	0.766
2706.25	0.7624
2715.38	0.7584
2724.51	0.758
2733.64	0.757
2742.77	0.7558
2751.89	0.7518
2761.02	0.7454
2770.15	0.737
2779.28	0.7258
2788.41	0.7154
2797.53	0.7032
2806.66	0.6874
2815.79	0.672
2824.92	0.6584
2834.05	0.657
2843.17	0.655
2852.3	0.653
2861.43	0.6462
2870.56	0.6374
2879.69	0.6284
2888.81	0.6122
2897.94	0.6008
2907.07	0.5924
2916.2	0.583
2925.32	0.579
2934.45	0.5744
2943.58	0.568
2952.71	0.562
2961.84	0.5574
2970.96	0.546
2980.09	0.5324
2989.22	0.5208
2998.35	0.5122
3007.48	0.5024
3016.6	0.4964
3025.73	0.4852
3034.86	0.4668
3043.99	0.4516
3053.12	0.436
3062.24	0.4208
3071.37	0.3952
3080.5	0.389
3089.63	0.388
3098.76	0.388
3107.88	0.392
3117.01	0.397
3126.14	0.3964
3135.27	0.3948
3144.4	0.39
3153.52	0.387
3162.65	0.3794
3171.78	0.374
3180.91	0.368
3190.04	0.359
3199.16	0.3512
3208.29	0.3414
3217.42	0.3298
3226.55	0.3144
3235.68	0.3042
3244.8	0.2928
3253.93	0.288
3263.06	0.2858
3272.19	0.28
3281.31	0.275
3290.44	0.272
3299.57	0.2716
3308.7	0.275
3317.83	0.2908
3326.95	0.3042
3336.08	0.309
3345.21	0.3038
3354.34	0.2934
3363.47	0.2798
3372.59	0.2674
3381.72	0.2642
3390.85	0.2636
3399.98	0.2706
3409.11	0.2762
3418.23	0.2918
3427.36	0.3287
3436.49	0.3853
3445.62	0.4238
3454.75	0.4586
3463.87	0.4926
3473	0.5124
3482.13	0.5316
3491.26	0.5446
3500.39	0.5546
3509.51	0.5626
3518.64	0.5732
3527.77	0.5822
3536.9	0.5912
3546.03	0.6078
3555.15	0.6264
3564.28	0.6492
3573.41	0.6802
3582.54	0.7169
3591.66	0.743
3600.79	0.765
3609.92	0.7864
3619.05	0.797
3628.18	0.802
3637.3	0.8106
3646.43	0.8186
3655.56	0.823
3664.69	0.824
3673.82	0.829
3682.94	0.832
3692.07	0.832
3701.2	0.831
3710.33	0.829
3719.46	0.828
3728.58	0.828
3737.71	0.829
3746.84	0.829
3755.97	0.828
3765.1	0.825
3774.22	0.8224
3783.35	0.8184
3792.48	0.816
3801.61	0.814
3810.74	0.815
3819.86	0.816
3828.99	0.819
3838.12	0.8184
3847.25	0.816
3856.38	0.812
3865.5	0.802
3874.63	0.8
3883.76	0.803
3892.89	0.809
3902.01	0.8024
3911.14	0.793
3920.27	0.7998
3929.4	0.807
3938.53	0.8004
3947.65	0.798
3956.78	0.8026
3965.91	0.803
3975.04	0.8004
3984.17	0.7934
3993.29	0.789
4002.42	0.798
4011.55	0.801
4020.68	0.801
4029.81	0.8004
4038.93	0.7911
4048.06	0.7818
