Infrared Spectrum: UREA, 1-METHYL-1-NITROSO-3-(8-QUINOLYL)-
Formula: C11 H10 N4 O2
CAS: 91091-63-3
State: SOLID (1 mg / 650 mg KBr DISC)
Class: COBLENTZ III
Instrument: PERKIN-ELMER 221 (GRATING)
Instrument parameters: FILTER AT 980 CM ^-^1, GRATING FOR 4000-1428 CM^-^1, NaCl PRISM FOR 1428-650 CM^-^1
Sampling: TRANSMISSION
Resolution: 4
Origin: SOUTHERN RES. INSTITUTE
1/CM	TRANSMITTANCE
625.092	0.928
634.264	0.927
643.437	0.923
652.609	0.911
661.781	0.901
670.954	0.888
680.126	0.853
689.299	0.774
698.471	0.562
707.643	0.609
716.816	0.802
725.988	0.758
735.16	0.829
744.333	0.917
753.505	0.917
762.677	0.907
771.85	0.685
781.022	0.824
790.195	0.88
799.367	0.726
808.539	0.527
817.712	0.644
826.884	0.923
836.056	0.483
845.229	0.773
854.401	0.936
863.574	0.936
872.746	0.919
881.918	0.907
891.091	0.876
900.263	0.771
909.435	0.834
918.608	0.863
927.78	0.828
936.952	0.846
946.125	0.794
955.297	0.711
964.47	0.506
973.642	0.332
982.814	0.431
991.987	0.636
1001.16	0.821
1010.33	0.879
1019.5	0.923
1028.68	0.918
1037.85	0.876
1047.02	0.902
1056.19	0.617
1065.37	0.561
1074.54	0.817
1083.71	0.905
1092.88	0.899
1102.06	0.907
1111.23	0.885
1120.4	0.816
1129.57	0.638
1138.74	0.533
1147.92	0.649
1157.09	0.9
1166.26	0.917
1175.43	0.899
1184.61	0.783
1193.78	0.874
1202.95	0.891
1212.12	0.819
1221.3	0.743
1230.47	0.684
1239.64	0.739
1248.81	0.819
1257.99	0.885
1267.16	0.863
1276.33	0.869
1285.5	0.888
1294.67	0.873
1303.85	0.862
1313.02	0.838
1322.19	0.741
1331.36	0.591
1340.54	0.753
1349.71	0.826
1358.88	0.827
1368.05	0.797
1377.23	0.723
1386.4	0.645
1395.57	0.676
1404.74	0.705
1413.92	0.634
1423.09	0.556
1432.26	0.405
1441.43	0.5
1450.6	0.598
1459.78	0.561
1468.95	0.426
1478.12	0.196
1487.29	0.299
1496.47	0.421
1505.64	0.458
1514.81	0.688
1523.98	0.545
1533.16	0.201
1542.33	0.222
1551.5	0.409
1560.67	0.568
1569.85	0.687
1579.02	0.777
1588.19	0.639
1597.36	0.741
1606.54	0.811
1615.71	0.84
1624.88	0.882
1634.05	0.879
1643.22	0.871
1652.4	0.87
1661.57	0.869
1670.74	0.865
1679.91	0.847
1689.09	0.812
1698.26	0.758
1707.43	0.707
1716.6	0.634
1725.78	0.224
1734.95	0.296
1744.12	0.475
1753.29	0.663
1762.47	0.826
1771.64	0.924
1780.81	0.966
1789.98	0.974
1799.15	0.979
1808.33	0.992
1817.5	1.001
1826.67	0.994
1835.84	0.968
1845.02	1.004
1854.19	1.007
1863.36	1.007
1872.53	1.005
1881.71	0.999
1890.88	0.99
1900.05	0.99
1909.22	0.99
1918.4	0.974
1927.57	0.98
1936.74	0.974
1945.91	0.963
1955.09	0.961
1964.26	0.965
1973.43	0.966
1982.6	0.966
1991.77	0.965
2000.95	0.961
2010.12	0.958
2019.29	0.956
2028.46	0.954
2037.64	0.952
2046.81	0.948
2055.98	0.942
2065.15	0.938
2074.33	0.935
2083.5	0.933
2092.67	0.932
2101.84	0.929
2111.02	0.926
2120.19	0.924
2129.36	0.923
2138.53	0.923
2147.7	0.919
2156.88	0.916
2166.05	0.914
2175.22	0.912
2184.39	0.911
2193.57	0.911
2202.74	0.91
2211.91	0.91
2221.08	0.91
2230.26	0.907
2239.43	0.904
2248.6	0.9
2257.77	0.898
2266.95	0.895
2276.12	0.894
2285.29	0.892
2294.46	0.89
2303.63	0.888
2312.81	0.882
2321.98	0.875
2331.15	0.869
2340.32	0.867
2349.5	0.866
2358.67	0.865
2367.84	0.872
2377.01	0.875
2386.19	0.878
2395.36	0.876
2404.53	0.873
2413.7	0.869
2422.88	0.868
2432.05	0.868
2441.22	0.869
2450.39	0.869
2459.57	0.87
2468.74	0.869
2477.91	0.864
2487.08	0.859
2496.25	0.856
2505.43	0.853
2514.6	0.853
2523.77	0.853
2532.94	0.853
2542.12	0.852
2551.29	0.85
2560.46	0.846
2569.63	0.844
2578.81	0.843
2587.98	0.842
2597.15	0.841
2606.32	0.841
2615.5	0.841
2624.67	0.839
2633.84	0.837
2643.01	0.835
2652.18	0.836
2661.36	0.836
2670.53	0.833
2679.7	0.831
2688.87	0.826
2698.05	0.824
2707.22	0.822
2716.39	0.824
2725.56	0.822
2734.74	0.821
2743.91	0.815
2753.08	0.815
2762.25	0.817
2771.43	0.813
2780.6	0.811
2789.77	0.81
2798.94	0.811
2808.12	0.809
2817.29	0.805
2826.46	0.799
2835.63	0.791
2844.8	0.774
2853.98	0.765
2863.15	0.777
2872.32	0.78
2881.49	0.78
2890.67	0.773
2899.84	0.758
2909.01	0.75
2918.18	0.733
2927.36	0.731
2936.53	0.742
2945.7	0.752
2954.87	0.758
2964.05	0.765
2973.22	0.766
2982.39	0.765
2991.56	0.76
3000.73	0.757
3009.91	0.752
3019.08	0.748
3028.25	0.751
3037.42	0.752
3046.6	0.745
3055.77	0.745
3064.94	0.742
3074.11	0.744
3083.29	0.745
3092.46	0.745
3101.63	0.744
3110.8	0.736
3119.98	0.73
3129.15	0.74
3138.32	0.744
3147.49	0.744
3156.66	0.742
3165.84	0.739
3175.01	0.732
3184.18	0.726
3193.35	0.72
3202.53	0.716
3211.7	0.712
3220.87	0.709
3230.04	0.705
3239.22	0.699
3248.39	0.691
3257.56	0.684
3266.73	0.677
3275.91	0.671
3285.08	0.656
3294.25	0.628
3303.42	0.55
3312.6	0.425
3321.77	0.442
3330.94	0.703
3340.11	0.698
3349.28	0.682
3358.46	0.667
3367.63	0.654
3376.8	0.643
3385.97	0.632
3395.15	0.625
3404.32	0.62
3413.49	0.609
3422.66	0.606
3431.84	0.608
3441.01	0.609
3450.18	0.612
3459.35	0.614
3468.53	0.615
3477.7	0.615
3486.87	0.615
3496.04	0.616
3505.21	0.618
3514.39	0.62
3523.56	0.626
3532.73	0.631
3541.9	0.64
3551.08	0.646
3560.25	0.652
3569.42	0.66
3578.59	0.661
3587.77	0.663
3596.94	0.67
3606.11	0.678
3615.28	0.681
3624.46	0.69
3633.63	0.695
3642.8	0.697
3651.97	0.697
3661.15	0.698
3670.32	0.696
3679.49	0.695
3688.66	0.695
3697.83	0.694
3707.01	0.695
3716.18	0.694
3725.35	0.692
3734.52	0.691
3743.7	0.69
3752.87	0.689
3762.04	0.689
3771.21	0.688
3780.39	0.687
3789.56	0.685
3798.73	0.683
3807.9	0.68
3817.08	0.678
3826.25	0.676
3835.42	0.674
3844.59	0.673
3853.76	0.672
3862.94	0.672
3872.11	0.673
3881.28	0.673
3890.45	0.673
3899.63	0.673
3908.8	0.673
3917.97	0.67
3927.14	0.669
3936.32	0.669
3945.49	0.668
3954.66	0.668
3963.83	0.669
3973.01	0.671
3982.18	0.671
3991.35	0.672
4000.52	0.673
