Infrared Spectrum: 2-PHENYLMERCAPTO-3-METHYLPYRAZINE
Formula: C11 H10 N2 S
CAS: 91091-02-0
State: SOLID (MINERAL OIL MULL)
Melting point: 70-71 C C
Class: COBLENTZ
Instrument: Not specified, most likely a prism, grating, or hybrid spectrometer.
Sampling: TRANSMISSION
Resolution: 4
Origin: WYANDOTTE CHEMICALS CORP., WYANDOTTE, MICHIGAN, USA
MICROMETERS	TRANSMITTANCE
2.02	0.265
2.05973	0.271
2.09947	0.278
2.1392	0.28
2.17893	0.283
2.21867	0.28
2.2584	0.29
2.29813	0.293
2.33787	0.296
2.3776	0.3
2.41734	0.301
2.45707	0.305
2.4968	0.311
2.53654	0.316
2.57627	0.318
2.616	0.323
2.65574	0.328
2.69547	0.328
2.7352	0.326
2.77494	0.321
2.81467	0.316
2.8544	0.316
2.89414	0.316
2.93387	0.318
2.9736	0.32
3.01334	0.325
3.05307	0.339
3.09281	0.344
3.13254	0.349
3.17227	0.353
3.21201	0.358
3.25174	0.325
3.29147	0.285
3.33121	0.179
3.37094	0.046
3.41067	0.049
3.45041	0.119
3.49014	0.116
3.52987	0.331
3.56961	0.499
3.60934	0.517
3.64907	0.517
3.68881	0.509
3.72854	0.512
3.76828	0.515
3.80801	0.529
3.84774	0.533
3.88748	0.542
3.92721	0.55
3.96694	0.558
4.00668	0.563
4.04641	0.567
4.08614	0.568
4.12588	0.568
4.16561	0.57
4.20534	0.577
4.24508	0.56
4.28481	0.56
4.32454	0.573
4.36428	0.601
4.40401	0.62
4.44374	0.606
4.48348	0.61
4.52321	0.618
4.56295	0.62
4.60268	0.626
4.64241	0.631
4.68215	0.638
4.72188	0.643
4.76161	0.651
4.80135	0.66
4.84108	0.665
4.88081	0.666
4.92055	0.666
4.96028	0.671
5.00001	0.676
5.03975	0.678
5.07948	0.686
5.11921	0.686
5.15895	0.681
5.19868	0.689
5.23842	0.693
5.27815	0.679
5.31788	0.694
5.35762	0.691
5.39735	0.716
5.43708	0.726
5.47682	0.729
5.51655	0.731
5.55628	0.718
5.59602	0.719
5.63575	0.731
5.67548	0.736
5.71522	0.731
5.75495	0.736
5.79468	0.739
5.83442	0.739
5.87415	0.734
5.91389	0.723
5.95362	0.728
5.99335	0.719
6.03309	0.721
6.07282	0.728
6.11255	0.744
6.15229	0.754
6.19202	0.767
6.23175	0.769
6.27149	0.724
6.31122	0.781
6.35095	0.781
6.39069	0.802
6.43042	0.791
6.47015	0.81
6.50989	0.786
6.54962	0.519
6.58936	0.562
6.62909	0.688
6.66882	0.726
6.70856	0.605
6.74829	0.344
6.78802	0.311
6.82776	0.305
6.86749	0.326
6.90722	0.31
6.94696	0.353
6.98669	0.474
7.02642	0.59
7.06616	0.636
7.10589	0.651
7.14562	0.625
7.18536	0.53
7.22509	0.208
7.26483	0.323
7.30456	0.484
7.34429	0.295
7.38403	0.383
7.42376	0.378
7.46349	0.577
7.50323	0.641
7.54296	0.694
7.58269	0.716
7.62243	0.716
7.66216	0.747
7.70189	0.756
7.74163	0.771
7.78136	0.774
7.82109	0.766
7.86083	0.779
7.90056	0.787
7.94029	0.776
7.98003	0.792
8.01976	0.799
8.0595	0.807
8.09923	0.822
8.13896	0.832
8.1787	0.839
8.21843	0.747
8.25816	0.63
8.2979	0.804
8.33763	0.728
8.37736	0.703
8.4171	0.809
8.45683	0.829
8.49656	0.731
8.5363	0.436
8.57603	0.616
8.61576	0.739
8.6555	0.797
8.69523	0.819
8.73497	0.849
8.7747	0.873
8.81443	0.867
8.85417	0.857
8.8939	0.867
8.93363	0.878
8.97337	0.862
9.0131	0.747
9.05283	0.505
9.09257	0.373
9.1323	0.361
9.17203	0.266
9.21177	0.376
9.2515	0.583
9.29123	0.678
9.33097	0.65
9.3707	0.421
9.41044	0.411
9.45017	0.605
9.4899	0.674
9.52964	0.723
9.56937	0.696
9.6091	0.709
9.64884	0.751
9.68857	0.688
9.7283	0.499
9.76804	0.489
9.80777	0.66
9.8475	0.728
9.88724	0.767
9.92697	0.796
9.9667	0.782
10.0064	0.761
10.0462	0.805
10.0859	0.812
10.1256	0.807
10.1654	0.812
10.2051	0.807
10.2448	0.791
10.2846	0.747
10.3243	0.673
10.364	0.62
10.4038	0.568
10.4435	0.605
10.4832	0.683
10.523	0.754
10.5627	0.794
10.6024	0.814
10.6422	0.827
10.6819	0.832
10.7216	0.844
10.7614	0.849
10.8011	0.852
10.8408	0.859
10.8806	0.86
10.9203	0.862
10.96	0.844
10.9998	0.835
11.0395	0.86
11.0792	0.864
11.119	0.868
11.1587	0.873
11.1984	0.877
11.2382	0.877
11.2779	0.87
11.3176	0.868
11.3574	0.88
11.3971	0.883
11.4368	0.885
11.4766	0.877
11.5163	0.877
11.556	0.87
11.5958	0.862
11.6355	0.835
11.6752	0.779
11.715	0.613
11.7547	0.436
11.7944	0.57
11.8342	0.573
11.8739	0.49
11.9136	0.522
11.9534	0.565
11.9931	0.731
12.0328	0.819
12.0726	0.862
12.1123	0.878
12.152	0.887
12.1918	0.89
12.2315	0.897
12.2712	0.9
12.311	0.903
12.3507	0.908
12.3904	0.912
12.4302	0.915
12.4699	0.917
12.5097	0.917
12.5494	0.918
12.5891	0.923
12.6289	0.925
12.6686	0.925
12.7083	0.925
12.7481	0.923
12.7878	0.917
12.8275	0.918
12.8673	0.91
12.907	0.905
12.9467	0.902
12.9865	0.888
13.0262	0.878
13.0659	0.854
13.1057	0.815
13.1454	0.752
13.1851	0.631
13.2249	0.424
13.2646	0.371
13.3043	0.33
13.3441	0.22
13.3838	0.308
13.4235	0.454
13.4633	0.585
13.503	0.666
13.5427	0.724
13.5825	0.767
13.6222	0.799
13.6619	0.817
13.7017	0.83
13.7414	0.842
13.7811	0.845
13.8209	0.852
13.8606	0.859
13.9003	0.86
13.9401	0.865
13.9798	0.875
14.0195	0.88
14.0593	0.849
14.099	0.752
14.1387	0.628
14.1785	0.643
14.2182	0.746
14.2579	0.812
14.2977	0.85
14.3374	0.857
14.3771	0.85
14.4169	0.827
14.4566	0.784
14.4963	0.708
14.5361	0.6
14.5758	0.479
14.6155	0.379
14.6553	0.369
14.695	0.439
14.7347	0.557
14.7745	0.631
14.8142	0.661
14.8539	0.669
14.8937	0.686
14.9334	0.708
14.9731	0.736
15.0129	0.724
15.0526	0.703
15.0923	0.709
15.1321	0.747
15.1718	0.761
15.2115	0.761
15.2513	0.754
15.291	0.742
15.3307	0.736
15.3705	0.733
15.4102	0.723
15.4499	0.713
15.4897	0.703
15.5294	0.699
15.5691	0.696
15.6089	0.686
15.6486	0.678
15.6883	0.668
15.7281	0.66
15.7678	0.646
15.8075	0.638
15.8473	0.621
15.887	0.608
15.9267	0.597
15.9665	0.587
16.0062	0.582
