Infrared Spectrum: DL-4-(2-HYDROXYETHYL)-2-PHENYL-Delta^2-THIAZOLINE
Formula: C11 H13 N O S
CAS: 91132-48-8
Boiling point: 134 C AT 0.1 mmHg
Class: COBLENTZ
Instrument: Not specified, most likely a prism, grating, or hybrid spectrometer.
Sampling: TRANSMISSION
Path length: FILM
Resolution: 4
Origin: ARTHUR D. LITTLE, INC.
1/CM	TRANSMITTANCE
650.118	0.272
659.704	0.205
669.29	0.118
678.875	0.012
688.461	0.096
698.047	0.102
707.633	0.086
717.219	0.138
726.804	0.134
736.39	0.157
745.976	0.072
755.562	0.003
765.148	0.088
774.733	0.2
784.319	0.152
793.905	0.263
803.491	0.332
813.077	0.341
822.662	0.327
832.248	0.272
841.834	0.215
851.42	0.181
861.006	0.29
870.591	0.335
880.177	0.337
889.763	0.332
899.349	0.155
908.935	0.099
918.52	0.274
928.106	0.274
937.692	0.263
947.278	0.261
956.864	0.141
966.449	0.065
976.035	0.168
985.621	0.216
995.207	0.104
1004.79	0.014
1014.38	0.178
1023.96	0.146
1033.55	0.227
1043.14	0.194
1052.72	0.138
1062.31	0.146
1071.89	0.168
1081.48	0.261
1091.06	0.231
1100.65	0.288
1110.24	0.319
1119.82	0.301
1129.41	0.168
1138.99	0.243
1148.58	0.26
1158.17	0.3
1167.75	0.269
1177.34	0.287
1186.92	0.298
1196.51	0.293
1206.09	0.276
1215.68	0.221
1225.27	0.072
1234.85	0.038
1244.44	0.06
1254.02	0.133
1263.61	0.223
1273.2	0.223
1282.78	0.184
1292.37	0.205
1301.95	0.133
1311.54	0.131
1321.12	0.157
1330.71	0.235
1340.3	0.279
1349.88	0.274
1359.47	0.237
1369.05	0.202
1378.64	0.235
1388.22	0.268
1397.81	0.263
1407.4	0.242
1416.98	0.163
1426.57	0.134
1436.15	0.213
1445.74	0.112
1455.33	0.123
1464.91	0.361
1474.5	0.43
1484.08	0.268
1493.67	0.123
1503.25	0.104
1512.84	0.168
1522.43	0.51
1532.01	0.637
1541.6	0.659
1551.18	0.667
1560.77	0.659
1570.35	0.55
1579.94	0.627
1589.53	0.502
1599.11	0.415
1608.7	0.613
1618.28	0.703
1627.87	0.719
1637.46	0.711
1647.04	0.703
1656.63	0.703
1666.21	0.704
1675.8	0.711
1685.38	0.751
1694.97	0.78
1704.56	0.784
1714.14	0.781
1723.73	0.781
1733.31	0.77
1742.9	0.751
1752.49	0.764
1762.07	0.791
1771.66	0.805
1781.24	0.802
1790.83	0.77
1800.41	0.754
1810	0.778
1819.59	0.791
1829.17	0.813
1838.76	0.828
1848.34	0.825
1857.93	0.818
1867.51	0.772
1877.1	0.743
1886.69	0.757
1896.27	0.765
1905.86	0.81
1915.44	0.818
1925.03	0.807
1934.62	0.788
1944.2	0.728
1953.79	0.743
1963.37	0.759
1972.96	0.78
1982.54	0.789
1992.13	0.812
2001.72	0.836
2011.3	0.844
2020.89	0.849
2030.47	0.85
2040.06	0.85
2049.64	0.85
2059.23	0.85
2068.82	0.853
2078.4	0.855
2087.99	0.855
2097.57	0.852
2107.16	0.855
2116.75	0.853
2126.33	0.853
2135.92	0.852
2145.5	0.852
2155.09	0.85
2164.67	0.849
2174.26	0.85
2183.85	0.852
2193.43	0.847
2203.02	0.845
2212.6	0.842
2222.19	0.841
2231.78	0.842
2241.36	0.841
2250.95	0.834
2260.53	0.829
2270.12	0.828
2279.7	0.829
2289.29	0.834
2298.88	0.836
2308.46	0.828
2318.05	0.828
2327.63	0.828
2337.22	0.829
2346.8	0.836
2356.39	0.842
2365.98	0.844
2375.56	0.849
2385.15	0.847
2394.73	0.845
2404.32	0.844
2413.91	0.841
2423.49	0.834
2433.08	0.833
2442.66	0.833
2452.25	0.833
2461.83	0.829
2471.42	0.828
2481.01	0.829
2490.59	0.828
2500.18	0.831
2509.76	0.834
2519.35	0.837
2528.93	0.841
2538.52	0.842
2548.11	0.842
2557.69	0.841
2567.28	0.836
2576.86	0.834
2586.45	0.834
2596.04	0.831
2605.62	0.833
2615.21	0.833
2624.79	0.833
2634.38	0.834
2643.96	0.833
2653.55	0.829
2663.14	0.818
2672.72	0.815
2682.31	0.812
2691.89	0.81
2701.48	0.812
2711.07	0.81
2720.65	0.8
2730.24	0.8
2739.82	0.797
2749.41	0.792
2758.99	0.794
2768.58	0.794
2778.17	0.791
2787.75	0.784
2797.34	0.768
2806.92	0.736
2816.51	0.701
2826.09	0.64
2835.68	0.577
2845.27	0.473
2854.85	0.449
2864.44	0.399
2874.02	0.292
2883.61	0.361
2893.2	0.353
2902.78	0.321
2912.37	0.237
2921.95	0.176
2931.54	0.154
2941.12	0.248
2950.71	0.276
2960.3	0.102
2969.88	0.07
2979.47	0.178
2989.05	0.418
2998.64	0.542
3008.22	0.529
3017.81	0.436
3027.4	0.451
3036.98	0.483
3046.57	0.441
3056.15	0.346
3065.74	0.338
3075.33	0.457
3084.91	0.455
3094.5	0.465
3104.08	0.441
3113.67	0.465
3123.25	0.601
3132.84	0.709
3142.43	0.738
3152.01	0.741
3161.6	0.749
3171.18	0.756
3180.77	0.76
3190.36	0.764
3199.94	0.768
3209.53	0.772
3219.11	0.767
3228.7	0.764
3238.28	0.757
3247.87	0.752
3257.46	0.749
3267.04	0.743
3276.63	0.733
3286.21	0.728
3295.8	0.719
3305.38	0.704
3314.97	0.696
3324.56	0.682
3334.14	0.677
3343.73	0.67
3353.31	0.664
3362.9	0.662
3372.49	0.659
3382.07	0.658
3391.66	0.654
3401.24	0.654
3410.83	0.656
3420.41	0.661
3430	0.667
3439.59	0.68
3449.17	0.695
3458.76	0.703
3468.34	0.711
3477.93	0.727
3487.51	0.743
3497.1	0.759
3506.69	0.77
3516.27	0.776
3525.86	0.792
3535.44	0.8
3545.03	0.808
3554.62	0.818
3564.2	0.82
3573.79	0.821
3583.37	0.821
3592.96	0.825
3602.54	0.825
3612.13	0.828
3621.72	0.828
3631.3	0.826
3640.89	0.823
3650.47	0.82
3660.06	0.821
3669.65	0.834
3679.23	0.853
3688.82	0.861
3698.4	0.863
3707.99	0.863
3717.57	0.866
3727.16	0.866
3736.75	0.869
3746.33	0.869
3755.92	0.871
3765.5	0.869
3775.09	0.873
3784.67	0.869
3794.26	0.869
3803.85	0.871
3813.43	0.868
3823.02	0.869
3832.6	0.865
3842.19	0.866
3851.78	0.866
3861.36	0.866
3870.95	0.866
3880.53	0.866
3890.12	0.863
3899.7	0.861
3909.29	0.86
3918.88	0.858
3928.46	0.858
3938.05	0.858
3947.63	0.857
3957.22	0.852
3966.8	0.849
3976.39	0.847
3985.98	0.844
3995.56	0.839
