Infrared Spectrum: 5-Methyl-1-phenylpyrazole-4-carboxylic acid
Formula: C 11 H 10 N 2 O 2
CAS: 91138-00-0
State: gas
Origin: EPA-IR VAPOR PHASE LIBRARY
1/CM	ABSORBANCE
549.8	0.01142
559.445	0.01058
569.09	0.00569
578.734	0.0041
588.379	0.00279
598.024	0.00197
607.669	0.00244
617.313	0.0009929
626.958	0.00145
636.603	0.00235
646.248	0.00317
655.893	0.00443
665.537	0.00369
675.182	0.00339
684.827	0.00603
694.472	0.00915
704.116	0.01116
713.761	0.01336
723.406	0.0135
733.051	0.00847
742.695	0.00452
752.34	0.00681
761.985	0.01208
771.63	0.01135
781.275	0.00886
790.919	0.00543
800.564	0.00238
810.209	0.00172
819.854	0.0013258
829.498	0.00144
839.143	0.0015
848.788	0.0011032
858.433	0.00171
868.078	0.0027
877.722	0.00347
887.367	0.00295
897.012	0.00235
906.657	0.00225
916.301	0.00283
925.946	0.00539
935.591	0.01194
945.236	0.0074
954.88	0.00328
964.525	0.00263
974.17	0.00293
983.815	0.00368
993.46	0.00439
1003.1	0.00614
1012.75	0.0068
1022.39	0.00396
1032.04	0.00386
1041.68	0.00582
1051.33	0.01807
1060.97	0.03733
1070.62	0.02338
1080.26	0.00989
1089.91	0.00784
1099.55	0.00557
1109.2	0.00508
1118.84	0.00411
1128.49	0.00451
1138.13	0.00718
1147.78	0.00918
1157.42	0.01406
1167.07	0.02457
1176.71	0.02192
1186.36	0.02059
1196	0.01853
1205.64	0.01346
1215.29	0.00602
1224.93	0.00331
1234.58	0.0029
1244.22	0.00336
1253.87	0.00326
1263.51	0.00358
1273.16	0.00585
1282.8	0.009
1292.45	0.00923
1302.09	0.00713
1311.74	0.00466
1321.38	0.00301
1331.03	0.00269
1340.67	0.00284
1350.32	0.00291
1359.96	0.0034
1369.61	0.00486
1379.25	0.00839
1388.9	0.01668
1398.54	0.02376
1408.18	0.01862
1417.83	0.01069
1427.47	0.00593
1437.12	0.00522
1446.76	0.00683
1456.41	0.00945
1466.05	0.00979
1475.7	0.00814
1485.34	0.00754
1494.99	0.01397
1504.63	0.02696
1514.28	0.00979
1523.92	0.00529
1533.57	0.00702
1543.21	0.0113
1552.86	0.02153
1562.5	0.02893
1572.15	0.01857
1581.79	0.00773
1591.44	0.00834
1601.08	0.01067
1610.73	0.00428
1620.37	0.00215
1630.01	0.00191
1639.66	0.00194
1649.3	0.00198
1658.95	0.0021
1668.59	0.00226
1678.24	0.00271
1687.88	0.00276
1697.53	0.00332
1707.17	0.00435
1716.82	0.0051
1726.46	0.00855
1736.11	0.02311
1745.75	0.06988
1755.4	0.09273
1765.04	0.02921
1774.69	0.00755
1784.33	0.00446
1793.98	0.00341
1803.62	0.00308
1813.27	0.00306
1822.91	0.00253
1832.55	0.00187
1842.2	0.00161
1851.84	0.00154
1861.49	0.00175
1871.13	0.00165
1880.78	0.00151
1890.42	0.00139
1900.07	0.0011414
1909.71	0.0011673
1919.36	0.0010833
1929	0.0012197
1938.65	0.0013114
1948.29	0.0013045
1957.94	0.0013263
1967.58	0.0011022
1977.23	0.000781
1986.87	0.0008129
1996.52	0.0009809
2006.16	0.0008781
2015.81	0.00081
2025.45	0.0009388
2035.1	0.0008708
2044.74	0.0008203
2054.38	0.0007866
2064.03	0.0010251
2073.67	0.0008818
2083.32	0.0009698
2092.96	0.0010639
2102.61	0.0009296
2112.25	0.0010656
2121.9	0.0011151
2131.54	0.0009906
2141.19	0.0010984
2150.83	0.0010576
2160.48	0.0008858
2170.12	0.0007444
2179.77	0.0008212
2189.41	0.00092
2199.06	0.0010527
2208.7	0.0009382
2218.35	0.0006894
2227.99	0.0009094
2237.64	0.000883
2247.28	0.0008029
2256.92	0.0008468
2266.57	0.0007886
2276.21	0.0009608
2285.86	0.0007461
2295.5	0.0007181
2305.15	0.0008453
2314.79	0.0010286
2324.44	0.0009939
2334.08	0.0009284
2343.73	0.0009629
2353.37	0.0009045
2363.02	0.0008075
2372.66	0.0008976
2382.31	0.0007904
2391.95	0.0008598
2401.6	0.0007748
2411.24	0.0010674
2420.89	0.000944
2430.53	0.0010832
2440.18	0.0009869
2449.82	0.0011669
2459.47	0.0007653
2469.11	0.0011885
2478.75	0.0008449
2488.4	0.0009299
2498.04	0.0009967
2507.69	0.0009635
2517.33	0.0009094
2526.98	0.0009675
2536.62	0.0008439
2546.27	0.0008124
2555.91	0.0008778
2565.56	0.0010426
2575.2	0.0007603
2584.85	0.0010428
2594.49	0.0008304
2604.14	0.0009042
2613.78	0.0007239
2623.43	0.0006987
2633.07	0.0009063
2642.72	0.0009036
2652.36	0.0008901
2662.01	0.0007218
2671.65	0.0010893
2681.29	0.0009298
2690.94	0.0011089
2700.58	0.0007333
2710.23	0.0006295
2719.87	0.0007955
2729.52	0.00069
2739.16	0.0010312
2748.81	0.0008264
2758.45	0.0009963
2768.1	0.0010366
2777.74	0.0012941
2787.39	0.0008819
2797.03	0.0007537
2806.68	0.0009253
2816.32	0.0007485
2825.97	0.001012
2835.61	0.0008168
2845.26	0.0009967
2854.9	0.0012389
2864.55	0.0013497
2874.19	0.0008453
2883.84	0.0007559
2893.48	0.0009597
2903.12	0.0013056
2912.77	0.0009797
2922.41	0.00169
2932.06	0.00214
2941.7	0.0024
2951.35	0.00223
2960.99	0.00192
2970.64	0.00197
2980.28	0.0013444
2989.93	0.00148
2999.57	0.00146
3009.22	0.00165
3018.86	0.0013633
3028.51	0.00188
3038.15	0.00275
3047.8	0.00339
3057.44	0.00344
3067.09	0.00392
3076.73	0.00489
3086.38	0.00361
3096.02	0.0022
3105.67	0.00219
3115.31	0.00171
3124.95	0.0012254
3134.6	0.0011073
3144.24	0.001219
3153.89	0.0011232
3163.53	0.0005219
3173.18	0.0008738
3182.82	0.0010156
3192.47	0.0008492
3202.11	0.0007814
3211.76	0.0003338
3221.4	0.0010874
3231.05	0.0009673
3240.69	0.0006599
3250.34	0.0005243
3259.98	0.0011164
3269.63	0.0008267
3279.27	0.0008628
3288.92	0.0007724
3298.56	0.0006551
3308.21	0.0007669
3317.85	0.0012496
3327.49	0.0008847
3337.14	0.0006294
3346.78	0.0007094
3356.43	0.0010102
3366.07	0.0006842
3375.72	0.000734
3385.36	0.0004806
3395.01	0.0007933
3404.65	0.0007961
3414.3	0.0005938
3423.94	0.000661
3433.59	0.0009043
3443.23	0.0008395
3452.88	0.0005147
3462.52	0.0006644
3472.17	0.0012007
3481.81	0.0011166
3491.46	0.00168
3501.1	0.0008294
3510.75	0.0008881
3520.39	0.0009657
3530.04	0.0012766
3539.68	0.0009317
3549.32	0.0007682
3558.97	0.00162
3568.61	0.00614
3578.26	0.0211
3587.9	0.02004
3597.55	0.00274
3607.19	0.0006877
3616.84	0.001008
3626.48	0.0011107
3636.13	0.0008022
3645.77	0.0006382
3655.42	0.0007925
3665.06	0.0008002
3674.71	0.000749
3684.35	0.0008349
3694	0.0011092
3703.64	0.0005286
3713.29	0.0007949
3722.93	0.00039641
3732.58	0.000648
3742.22	0.0007351
3751.86	0.000151
3761.51	0.000472
3771.15	0.0007359
3780.8	0.0009559
3790.44	0.0005477
3800.09	0.00039829
3809.73	0.0008656
3819.38	0.0003523
3829.02	0.0006311
3838.67	0.00043414
3848.31	0.00040741
3857.96	0.0007228
3867.6	0.0005573
3877.25	0.0008775
3886.89	0.0008541
3896.54	0.0006957
3906.18	0.000747
3915.83	0.0007064
3925.47	0.0007887
3935.12	0.00041616
3944.76	0.0009551
3954.41	0.0005977
3964.05	0.0002704
3973.69	0.0003178
3983.34	0.0007569
3992.98	0.000746
