Infrared Spectrum: 2-PHENOXY-3-METHYL PYRAZINE
Formula: C11 H10 N2 O
CAS: 91137-78-9
State: SOLID (MINERAL OIL MULL)
Class: COBLENTZ
Instrument: Not specified, most likely a prism, grating, or hybrid spectrometer.
Sampling: TRANSMISSION
Resolution: 4
Origin: WYANDOTTE CHEMICALS CORP., WYANDOTTE, MICHIGAN, USA
MICROMETERS	TRANSMITTANCE
2.113	0.635
2.15285	0.64
2.19269	0.625
2.23254	0.62
2.27239	0.622
2.31223	0.628
2.35208	0.627
2.39193	0.62
2.43177	0.623
2.47162	0.623
2.51147	0.62
2.55131	0.635
2.59116	0.628
2.63101	0.642
2.67085	0.632
2.7107	0.625
2.75055	0.635
2.7904	0.628
2.83024	0.617
2.87009	0.607
2.90994	0.603
2.94978	0.602
2.98963	0.6
3.02948	0.599
3.06932	0.597
3.10917	0.585
3.14902	0.58
3.18886	0.574
3.22871	0.535
3.26856	0.376
3.3084	0.455
3.34825	0.271
3.3881	0.249
3.42794	0.331
3.46779	0.372
3.50764	0.455
3.54748	0.683
3.58733	0.708
3.62718	0.702
3.66702	0.695
3.70687	0.7
3.74672	0.698
3.78656	0.705
3.82641	0.708
3.86626	0.71
3.9061	0.708
3.94595	0.715
3.9858	0.722
4.02565	0.725
4.06549	0.718
4.10534	0.707
4.14519	0.71
4.18503	0.72
4.22488	0.713
4.26473	0.693
4.30457	0.703
4.34442	0.73
4.38427	0.757
4.42411	0.758
4.46396	0.752
4.50381	0.762
4.54365	0.77
4.5835	0.768
4.62335	0.765
4.66319	0.768
4.70304	0.778
4.74289	0.783
4.78273	0.79
4.82258	0.798
4.86243	0.797
4.90227	0.808
4.94212	0.811
4.98197	0.806
5.02181	0.788
5.06166	0.797
5.10151	0.808
5.14135	0.806
5.1812	0.795
5.22105	0.778
5.26089	0.785
5.30074	0.81
5.34059	0.82
5.38044	0.816
5.42028	0.848
5.46013	0.868
5.49998	0.886
5.53982	0.871
5.57967	0.836
5.61952	0.835
5.65936	0.866
5.69921	0.88
5.73906	0.866
5.7789	0.901
5.81875	0.886
5.8586	0.876
5.89844	0.893
5.93829	0.903
5.97814	0.936
6.01798	0.935
6.05783	0.948
6.09768	0.955
6.13752	0.955
6.17737	0.96
6.21722	0.367
6.25706	0.472
6.29691	0.622
6.33676	0.787
6.3766	0.816
6.41645	0.773
6.4563	0.529
6.49614	0.396
6.53599	0.642
6.57584	0.888
6.61569	0.777
6.65553	0.221
6.69538	0.227
6.73523	0.322
6.77507	0.281
6.81492	0.179
6.85477	0.154
6.89461	0.209
6.93446	0.179
6.97431	0.201
7.01415	0.229
7.054	0.171
7.09385	0.081
7.13369	0.073
7.17354	0.146
7.21339	0.138
7.25323	0.108
7.29308	0.296
7.33293	0.404
7.37277	0.514
7.41262	0.625
7.45247	0.668
7.49231	0.589
7.53216	0.49
7.57201	0.495
7.61185	0.519
7.6517	0.445
7.69155	0.339
7.73139	0.291
7.77124	0.199
7.81109	0.224
7.85094	0.337
7.89078	0.404
7.93063	0.302
7.97048	0.291
8.01032	0.405
8.05017	0.542
8.09002	0.615
8.12986	0.585
8.16971	0.462
8.20956	0.312
8.2494	0.131
8.28925	0.106
8.3291	0.194
8.36894	0.232
8.40879	0.154
8.44864	0.084
8.48848	0.164
8.52833	0.249
8.56818	0.236
8.60802	0.211
8.64787	0.244
8.68772	0.246
8.72756	0.296
8.76741	0.357
8.80726	0.405
8.8471	0.427
8.88695	0.449
8.9268	0.46
8.96664	0.472
9.00649	0.497
9.04634	0.529
9.08619	0.544
9.12603	0.55
9.16588	0.549
9.20573	0.56
9.24557	0.549
9.28542	0.52
9.32527	0.396
9.36511	0.469
9.40496	0.59
9.44481	0.623
9.48465	0.635
9.5245	0.647
9.56435	0.658
9.60419	0.65
9.64404	0.62
9.68389	0.554
9.72373	0.405
9.76358	0.387
9.80343	0.494
9.84327	0.56
9.88312	0.562
9.92297	0.6
9.96281	0.57
10.0027	0.637
10.0425	0.667
10.0824	0.67
10.1222	0.655
10.162	0.627
10.2019	0.56
10.2417	0.467
10.2816	0.404
10.3214	0.464
10.3613	0.562
10.4011	0.608
10.441	0.554
10.4808	0.603
10.5207	0.682
10.5605	0.725
10.6004	0.748
10.6402	0.767
10.6801	0.778
10.7199	0.787
10.7597	0.8
10.7996	0.801
10.8394	0.8
10.8793	0.77
10.9191	0.678
10.959	0.549
10.9988	0.464
11.0387	0.527
11.0785	0.628
11.1184	0.605
11.1582	0.505
11.1981	0.575
11.2379	0.655
11.2778	0.7
11.3176	0.727
11.3575	0.742
11.3973	0.752
11.4371	0.748
11.477	0.742
11.5168	0.718
11.5567	0.68
11.5965	0.642
11.6364	0.589
11.6762	0.517
11.7161	0.404
11.7559	0.337
11.7958	0.352
11.8356	0.459
11.8755	0.55
11.9153	0.648
11.9552	0.698
11.995	0.673
12.0348	0.594
12.0747	0.577
12.1145	0.65
12.1544	0.7
12.1942	0.672
12.2341	0.524
12.2739	0.444
12.3138	0.504
12.3536	0.599
12.3935	0.622
12.4333	0.579
12.4732	0.497
12.513	0.46
12.5529	0.47
12.5927	0.5
12.6325	0.575
12.6724	0.65
12.7122	0.717
12.7521	0.752
12.7919	0.762
12.8318	0.75
12.8716	0.732
12.9115	0.732
12.9513	0.742
12.9912	0.748
13.031	0.753
13.0709	0.713
13.1107	0.685
13.1506	0.713
13.1904	0.727
13.2302	0.727
13.2701	0.715
13.3099	0.698
13.3498	0.687
13.3896	0.65
13.4295	0.61
13.4693	0.545
13.5092	0.462
13.549	0.379
13.5889	0.311
13.6287	0.267
13.6686	0.266
13.7084	0.319
13.7483	0.41
13.7881	0.532
13.828	0.643
13.8678	0.728
13.9076	0.777
13.9475	0.815
13.9873	0.848
14.0272	0.865
14.067	0.878
14.1069	0.878
14.1467	0.875
14.1866	0.88
14.2264	0.898
14.2663	0.91
14.3061	0.911
14.346	0.898
14.3858	0.858
14.4257	0.78
14.4655	0.643
14.5053	0.512
14.5452	0.407
14.585	0.357
14.6249	0.381
14.6647	0.469
14.7046	0.58
14.7444	0.67
14.7843	0.75
14.8241	0.797
14.864	0.826
14.9038	0.848
14.9437	0.866
14.9835	0.876
15.0234	0.865
15.0632	0.835
15.103	0.835
15.1429	0.865
15.1827	0.885
15.2226	0.888
15.2624	0.876
15.3023	0.871
15.3421	0.861
15.382	0.856
15.4218	0.85
15.4617	0.838
15.5015	0.826
15.5414	0.823
15.5812	0.818
15.6211	0.818
15.6609	0.82
15.7007	0.808
15.7406	0.787
15.7804	0.775
15.8203	0.765
15.8601	0.748
15.9	0.728
15.9398	0.722
15.9797	0.717
