Infrared Spectrum: PYRAZINE, 2-[2-(DIETHYLAMINO)-ETHYL]-
Formula: C10 H17 N3
CAS: 91140-68-0
State: LIQUID (NEAT)
Class: COBLENTZ III
Instrument: BAIRD (GRATING)
Instrument parameters: NaCl PRISM
Sampling: TRANSMISSION
Path length: 0.003 CM
Resolution: 2
Origin: WYANDOTTE CHEMICALS CORP.
1/CM	TRANSMITTANCE
4008.02	0.9251
3999	0.9256
3989.98	0.9266
3980.96	0.9275
3971.94	0.9285
3962.92	0.9306
3953.9	0.934
3944.88	0.9374
3935.86	0.9406
3926.85	0.9435
3917.83	0.9464
3908.81	0.9493
3899.79	0.9521
3890.77	0.9541
3881.75	0.9556
3872.73	0.9563
3863.71	0.9561
3854.69	0.9561
3845.67	0.9557
3836.65	0.9545
3827.63	0.9534
3818.61	0.9541
3809.59	0.9548
3800.57	0.9555
3791.55	0.956
3782.54	0.9561
3773.52	0.9559
3764.5	0.9559
3755.48	0.9546
3746.46	0.9531
3737.44	0.9509
3728.42	0.9487
3719.4	0.9478
3710.38	0.9473
3701.36	0.9467
3692.34	0.944
3683.32	0.94
3674.3	0.9313
3665.28	0.9212
3656.26	0.9114
3647.24	0.903
3638.23	0.8959
3629.21	0.8888
3620.19	0.8812
3611.17	0.873
3602.15	0.8646
3593.13	0.8577
3584.11	0.852
3575.09	0.8462
3566.07	0.8402
3557.05	0.8344
3548.03	0.8286
3539.01	0.8237
3529.99	0.8187
3520.97	0.8137
3511.95	0.8089
3502.93	0.8044
3493.91	0.7997
3484.9	0.7952
3475.88	0.7912
3466.86	0.788
3457.84	0.7848
3448.82	0.7815
3439.8	0.7783
3430.78	0.7753
3421.76	0.774
3412.74	0.7726
3403.72	0.7714
3394.7	0.7701
3385.68	0.7688
3376.66	0.7675
3367.64	0.7668
3358.62	0.7661
3349.6	0.7654
3340.59	0.7646
3331.57	0.764
3322.55	0.7638
3313.53	0.7637
3304.51	0.7636
3295.49	0.7637
3286.47	0.7653
3277.45	0.7681
3268.43	0.7728
3259.41	0.7764
3250.39	0.7796
3241.37	0.7811
3232.35	0.7822
3223.33	0.7811
3214.31	0.78
3205.29	0.7788
3196.27	0.7773
3187.26	0.7759
3178.24	0.7745
3169.22	0.7731
3160.2	0.7718
3151.18	0.7705
3142.16	0.7692
3133.14	0.7678
3124.12	0.7661
3115.1	0.7647
3106.08	0.7623
3097.06	0.7519
3088.04	0.7274
3079.02	0.6817
3070	0.6031
3060.98	0.524
3051.96	0.4445
3042.95	0.3837
3033.93	0.3927
3024.91	0.4182
3015.89	0.4423
3006.87	0.4064
2997.85	0.3226
2988.83	0.2382
2979.81	0.1534
2970.79	0.0681
2961.77	0.0185
2952.75	0.0182
2943.73	0.0239
2934.71	0.0286
2925.69	0.0329
2916.67	0.0389
2907.65	0.047
2898.64	0.0575
2889.62	0.0748
2880.6	0.105
2871.58	0.127
2862.56	0.1363
2853.54	0.1474
2844.52	0.1624
2835.5	0.1756
2826.48	0.1751
2817.46	0.1331
2808.44	0.0891
2799.42	0.0517
2790.4	0.0488
2781.38	0.05
2772.36	0.0631
2763.34	0.1221
2754.32	0.1767
2745.31	0.2317
2736.29	0.2871
2727.27	0.3428
2718.25	0.3988
2709.23	0.4393
2700.21	0.4639
2691.19	0.493
2682.17	0.5426
2673.15	0.6008
2664.13	0.6378
2655.11	0.664
2646.09	0.6947
2637.07	0.7283
2628.05	0.7566
2619.03	0.7688
2610.01	0.7807
2601	0.7916
2591.98	0.8011
2582.96	0.806
2573.94	0.8074
2564.92	0.8093
2555.9	0.8127
2546.88	0.8165
2537.86	0.8242
2528.84	0.84
2519.82	0.8552
2510.8	0.8651
2501.78	0.8728
2492.76	0.8792
2483.74	0.8846
2474.72	0.8891
2465.7	0.8917
2456.68	0.8927
2447.67	0.8903
2438.65	0.8882
2429.63	0.8866
2420.61	0.8864
2411.59	0.8866
2402.57	0.8871
2393.55	0.8884
2384.53	0.8897
2375.51	0.8924
2366.49	0.897
2357.47	0.8996
2348.45	0.9018
2339.43	0.9033
2330.41	0.9047
2321.39	0.9008
2312.37	0.9025
2303.36	0.915
2294.34	0.9274
2285.32	0.931
2276.3	0.9307
2267.28	0.9234
2258.26	0.9178
2249.24	0.9164
2240.22	0.9153
2231.2	0.9166
2222.18	0.9182
2213.16	0.9204
2204.14	0.9229
2195.12	0.923
2186.1	0.922
2177.08	0.9202
2168.06	0.9191
2159.05	0.9191
2150.03	0.919
2141.01	0.9195
2131.99	0.92
2122.97	0.9205
2113.95	0.9212
2104.93	0.9228
2095.91	0.9248
2086.89	0.925
2077.87	0.9232
2068.85	0.9222
2059.83	0.9222
2050.81	0.9238
2041.79	0.9267
2032.77	0.9282
2023.75	0.9295
2014.73	0.9294
2005.72	0.9305
1996.7	0.9307
1987.68	0.9304
1978.66	0.9319
1969.64	0.9311
1960.62	0.9235
1951.6	0.9167
1942.58	0.9145
1933.56	0.9048
1924.54	0.8933
1915.52	0.8852
1906.5	0.8815
1897.48	0.8998
1888.46	0.9073
1879.44	0.9084
1870.42	0.9113
1861.41	0.915
1852.39	0.913
1843.37	0.9106
1834.35	0.9136
1825.33	0.9159
1816.31	0.9148
1807.29	0.9067
1798.27	0.898
1789.25	0.891
1780.23	0.893
1771.21	0.8939
1762.19	0.8877
1753.17	0.8957
1744.15	0.9026
1735.13	0.9032
1726.11	0.8834
1717.1	0.8641
1708.08	0.8469
1699.06	0.8269
1690.04	0.7742
1681.02	0.7115
1672	0.7019
1662.98	0.7102
1653.96	0.7058
1644.94	0.7166
1635.92	0.741
1626.9	0.7704
1617.88	0.7986
1608.86	0.813
1599.84	0.8071
1590.82	0.6248
1581.8	0.643
1572.78	0.7948
1563.77	0.8098
1554.75	0.8023
1545.73	0.7789
1536.71	0.5411
1527.69	0.4265
1518.67	0.6877
1509.65	0.7186
1500.63	0.7092
1491.61	0.5309
1482.59	0.2267
1473.57	0.0658
1464.55	0.1209
1455.53	0.1682
1446.51	0.1913
1437.49	0.2738
1428.47	0.3942
1419.46	0.3959
1410.44	0.1564
1401.42	0.0243
1392.4	0.1283
1383.38	0.0684
1374.36	0.0882
1365.34	0.1778
1356.32	0.2285
1347.3	0.2477
1338.28	0.3411
1329.26	0.4241
1320.24	0.3984
1311.22	0.268
1302.2	0.2633
1293.18	0.2328
1284.16	0.3346
1275.14	0.4934
1266.13	0.4777
1257.11	0.4616
1248.09	0.5271
1239.07	0.4115
1230.05	0.2718
1221.03	0.3131
1212.01	0.2409
1202.99	0.1063
1193.97	0.2218
1184.95	0.3364
1175.93	0.263
1166.91	0.2118
1157.89	0.2652
1148.87	0.3277
1139.85	0.2388
1130.83	0.2097
1121.82	0.2238
1112.8	0.1685
1103.78	0.1901
1094.76	0.197
1085.74	0.1584
1076.72	0.1416
1067.7	0.0541
1058.68	0.0446
1049.66	0.2811
1040.64	0.4334
1031.62	0.4113
1022.6	0.1945
1013.58	0.0603
1004.56	0.3097
995.544	0.4424
986.524	0.4508
977.505	0.4839
968.486	0.5721
959.466	0.6687
950.447	0.7398
941.427	0.7672
932.408	0.7719
923.389	0.7813
914.369	0.7646
905.35	0.7524
896.331	0.7674
887.311	0.7878
878.292	0.8075
869.272	0.7566
860.253	0.5922
851.234	0.6744
842.214	0.5587
833.195	0.2257
824.175	0.4285
815.156	0.6386
806.137	0.5919
797.117	0.582
788.098	0.6292
779.078	0.5682
770.059	0.5761
761.04	0.5019
752.02	0.5298
743.001	0.6441
733.982	0.6119
724.962	0.6579
715.943	0.794
706.923	0.8385
697.904	0.8514
688.885	0.8526
679.865	0.8378
670.846	0.8243
661.826	0.7723
652.807	0.7106
643.788	0.7215
634.768	0.7279
