Infrared Spectrum: 3-Chloro-4-fluorobenzenesulphonyl chloride
Formula: C 6 H 3 Cl 2 F O 2 S
CAS: 91170-93-3
State: gas
Origin: EPA-IR VAPOR PHASE LIBRARY
1/CM	ABSORBANCE
549.9	0.15288
559.547	0.04241
569.193	0.02149
578.84	0.02436
588.486	0.05057
598.133	0.17727
607.779	0.1931
617.426	0.04276
627.072	0.01501
636.719	0.01291
646.365	0.02683
656.012	0.11996
665.658	0.05294
675.305	0.00888
684.951	0.00571
694.598	0.00749
704.245	0.01613
713.891	0.01601
723.538	0.01702
733.184	0.01041
742.831	0.00572
752.477	0.0052
762.124	0.00441
771.77	0.00342
781.417	0.0029211
791.063	0.00334
800.71	0.00463
810.356	0.01453
820.003	0.03938
829.649	0.02561
839.296	0.00986
848.943	0.02353
858.589	0.04193
868.236	0.01961
877.882	0.01322
887.529	0.0168
897.175	0.01206
906.822	0.00471
916.468	0.00326
926.115	0.0028126
935.761	0.0026933
945.408	0.0033
955.054	0.00323
964.701	0.0027304
974.347	0.0023612
983.994	0.0022064
993.64	0.0021217
1003.29	0.0022507
1012.93	0.0022629
1022.58	0.0026792
1032.23	0.00385
1041.87	0.00633
1051.52	0.0183
1061.17	0.03662
1070.81	0.02071
1080.46	0.01386
1090.11	0.03196
1099.75	0.04522
1109.4	0.0193
1119.05	0.01002
1128.69	0.0188
1138.34	0.03597
1147.99	0.03316
1157.63	0.0229
1167.28	0.03361
1176.92	0.12347
1186.57	0.28617
1196.22	0.15769
1205.86	0.07872
1215.51	0.03304
1225.16	0.01444
1234.8	0.02639
1244.45	0.04615
1254.1	0.04439
1263.74	0.08633
1273.39	0.119
1283.04	0.03757
1292.68	0.01581
1302.33	0.00991
1311.98	0.00868
1321.62	0.00705
1331.27	0.00654
1340.92	0.00668
1350.56	0.00788
1360.21	0.01163
1369.86	0.02067
1379.5	0.03911
1389.15	0.07532
1398.79	0.20055
1408.44	0.20998
1418.09	0.05527
1427.73	0.0181
1437.38	0.01178
1447.03	0.0106
1456.67	0.01371
1466.32	0.03411
1475.97	0.11492
1485.61	0.1321
1495.26	0.05624
1504.91	0.03378
1514.55	0.015
1524.2	0.00889
1533.85	0.0068
1543.49	0.00718
1553.14	0.01086
1562.79	0.01663
1572.43	0.02991
1582.08	0.04659
1591.73	0.02755
1601.37	0.00932
1611.02	0.00471
1620.67	0.00409
1630.31	0.00401
1639.96	0.0047
1649.6	0.00392
1659.25	0.0024912
1668.9	0.00202699
1678.54	0.001894
1688.19	0.001775
1697.84	0.001801
1707.48	0.0022201
1717.13	0.0025265
1726.78	0.0021549
1736.42	0.0021495
1746.07	0.0025384
1755.72	0.00379
1765.36	0.0056
1775.01	0.00521
1784.66	0.00385
1794.3	0.0025833
1803.95	0.002201
1813.6	0.0020037
1823.24	0.001863
1832.89	0.0019202
1842.54	0.001842
1852.18	0.001713
1861.83	0.00166
1871.47	0.001864
1881.12	0.0025427
1890.77	0.00413
1900.41	0.00396
1910.06	0.0024184
1919.71	0.0020962
1929.35	0.0019
1939	0.001703
1948.65	0.00176
1958.29	0.001775
1967.94	0.001796
1977.59	0.001834
1987.23	0.0021832
1996.88	0.0022747
2006.53	0.001906
2016.17	0.001612
2025.82	0.00145
2035.47	0.001489
2045.11	0.001596
2054.76	0.001528
2064.41	0.001363
2074.05	0.0013
2083.7	0.001308
2093.35	0.001398
2102.99	0.00141
2112.64	0.001591
2122.28	0.001865
2131.93	0.001982
2141.58	0.001611
2151.22	0.001447
2160.87	0.001414
2170.52	0.001371
2180.16	0.001477
2189.81	0.00178
2199.46	0.00208394
2209.1	0.001904
2218.75	0.001565
2228.4	0.001512
2238.04	0.001605
2247.69	0.00169
2257.34	0.001608
2266.98	0.001763
2276.63	0.0020312
2286.28	0.00207664
2295.92	0.001879
2305.57	0.001735
2315.22	0.001667
2324.86	0.001778
2334.51	0.001706
2344.16	0.001604
2353.8	0.001562
2363.45	0.001765
2373.09	0.001792
2382.74	0.001485
2392.39	0.001387
2402.03	0.001324
2411.68	0.001509
2421.33	0.001733
2430.97	0.00209988
2440.62	0.0023769
2450.27	0.0020822
2459.91	0.001585
2469.56	0.001493
2479.21	0.001477
2488.85	0.001543
2498.5	0.001774
2508.15	0.00202681
2517.79	0.0023513
2527.44	0.0025423
2537.09	0.0026242
2546.73	0.0026073
2556.38	0.0029059
2566.03	0.00387
2575.67	0.00448
2585.32	0.00363
2594.96	0.0022225
2604.61	0.001649
2614.26	0.00129
2623.9	0.001167
2633.55	0.001132
2643.2	0.001133
2652.84	0.001154
2662.49	0.001151
2672.14	0.001313
2681.78	0.001207
2691.43	0.00109
2701.08	0.00101
2710.72	0.001028
2720.37	0.001166
2730.02	0.001101
2739.66	0.001128
2749.31	0.001348
2758.96	0.001289
2768.6	0.001216
2778.25	0.00095
2787.9	0.00088
2797.54	0.00075
2807.19	0.00067
2816.84	0.00064
2826.48	0.00068
2836.13	0.00069
2845.77	0.00067
2855.42	0.00078
2865.07	0.00066
2874.71	0.00049
2884.36	0.00047
2894.01	0.00037
2903.65	0.00021
2913.3	0.00012
2922.95	0.00011
2932.59	0.00013
2942.24	0.00034
2951.89	0.00057
2961.53	0.00062
2971.18	0.00033
2980.83	0.00033
2990.47	0.00024
3000.12	0.00027
3009.77	0.00018
3019.41	0.00036
3029.06	0.00039
3038.71	0.0007
3048.35	0.00082
3058	0.00072
3067.64	0.001905
3077.29	0.00544
3086.94	0.00794
3096.58	0.00525
3106.23	0.0028014
3115.88	0.001367
3125.52	0.00057
3135.17	0.00036
3144.82	0.00051
3154.46	0.00042
3164.11	0.00046
3173.76	0.00052
3183.4	0.00032
3193.05	6e-05
3202.7	0.0002
3212.34	0.00041
3221.99	0.00028
3231.64	0.00033
3241.28	0.00031
3250.93	0.00034
3260.58	0.00028
3270.22	0.00024
3279.87	0.00022
3289.52	0.00048
3299.16	0.00057
3308.81	0.00038
3318.45	0.00037
3328.1	0.00053
3337.75	0.00054
3347.39	0.00061
3357.04	0.0006
3366.69	0.00081
3376.33	0.00063
3385.98	0.00071
3395.63	0.00065
3405.27	0.0008
3414.92	0.00082
3424.57	0.00079
3434.21	0.00092
3443.86	0.00085
3453.51	0.00096
3463.15	0.00102
3472.8	0.001081
3482.45	0.00099
3492.09	0.001064
3501.74	0.001035
3511.39	0.001145
3521.03	0.001053
3530.68	0.001147
3540.33	0.00112
3549.97	0.001096
3559.62	0.00111
3569.26	0.001136
3578.91	0.001234
3588.56	0.001265
3598.2	0.001245
3607.85	0.00128
3617.5	0.001152
3627.14	0.001276
3636.79	0.001248
3646.44	0.00129
3656.08	0.001315
3665.73	0.001406
3675.38	0.001326
3685.02	0.001217
3694.67	0.001436
3704.32	0.001381
3713.96	0.00142
3723.61	0.001331
3733.26	0.001369
3742.9	0.00163
3752.55	0.001446
3762.2	0.001467
3771.84	0.001428
3781.49	0.001395
3791.13	0.001448
3800.78	0.00136
3810.43	0.001385
3820.07	0.001378
3829.72	0.001384
3839.37	0.001248
3849.01	0.00131
3858.66	0.001241
3868.31	0.001271
3877.95	0.001331
3887.6	0.001337
3897.25	0.001385
3906.89	0.00132
3916.54	0.00146
3926.19	0.001423
3935.83	0.001576
3945.48	0.001546
3955.13	0.001552
3964.77	0.001406
3974.42	0.001426
3984.07	0.00122
3993.71	0.001337
