Infrared Spectrum: O-NITRO CARBANILIC ACID, n-BUTYL ESTER
Formula: C11 H14 N2 O4
CAS: 91182-04-6
Class: COBLENTZ
Instrument: Not specified, most likely a grating spectrometer.
Sampling: TRANSMISSION
Path length: CAPILLARY
Resolution: 4
Origin: CITRUS EXPERIMENT STATION, UNIVERSITY OF FLORIDA (G. EDWARDS)
MICROMETERS	TRANSMITTANCE
2.04	0.911
2.07318	0.909
2.10636	0.911
2.13954	0.911
2.17272	0.912
2.2059	0.908
2.23908	0.903
2.27226	0.903
2.30544	0.903
2.33861	0.904
2.37179	0.905
2.40497	0.905
2.43815	0.908
2.47133	0.908
2.50451	0.911
2.53769	0.912
2.57087	0.913
2.60405	0.912
2.63723	0.909
2.67041	0.911
2.70359	0.907
2.73677	0.9
2.76995	0.904
2.80313	0.901
2.83631	0.893
2.86948	0.881
2.90266	0.843
2.93584	0.673
2.96902	0.332
3.0022	0.553
3.03538	0.814
3.06856	0.857
3.10174	0.876
3.13492	0.876
3.1681	0.859
3.20128	0.803
3.23446	0.806
3.26764	0.818
3.30082	0.823
3.334	0.535
3.36718	0.277
3.40035	0.419
3.43353	0.548
3.46671	0.532
3.49989	0.656
3.53307	0.818
3.56625	0.851
3.59943	0.856
3.63261	0.861
3.66579	0.867
3.69897	0.873
3.73215	0.879
3.76533	0.879
3.79851	0.879
3.83169	0.876
3.86487	0.875
3.89805	0.891
3.93122	0.889
3.9644	0.9
3.99758	0.892
4.03076	0.884
4.06394	0.88
4.09712	0.877
4.1303	0.871
4.16348	0.877
4.19666	0.881
4.22984	0.885
4.26302	0.889
4.2962	0.884
4.32938	0.888
4.36256	0.899
4.39574	0.895
4.42892	0.889
4.46209	0.88
4.49527	0.891
4.52845	0.891
4.56163	0.889
4.59481	0.879
4.62799	0.895
4.66117	0.888
4.69435	0.897
4.72753	0.901
4.76071	0.903
4.79389	0.903
4.82707	0.903
4.86025	0.903
4.89343	0.897
4.92661	0.895
4.95979	0.893
4.99296	0.893
5.02614	0.885
5.05932	0.868
5.0925	0.872
5.12568	0.869
5.15886	0.868
5.19204	0.875
5.22522	0.877
5.2584	0.876
5.29158	0.881
5.32476	0.876
5.35794	0.859
5.39112	0.851
5.4243	0.841
5.45748	0.806
5.49066	0.794
5.52383	0.799
5.55701	0.788
5.59019	0.763
5.62337	0.694
5.65655	0.576
5.68973	0.204
5.72291	0.029
5.75609	0.1
5.78927	0.288
5.82245	0.549
5.85563	0.63
5.88881	0.751
5.92199	0.759
5.95517	0.768
5.98835	0.758
6.02153	0.75
6.0547	0.709
6.08788	0.685
6.12106	0.62
6.15424	0.511
6.18742	0.139
6.2206	0.077
6.25378	0.328
6.28696	0.239
6.32014	0.031
6.35332	0.483
6.3865	0.579
6.41968	0.448
6.45286	0.347
6.48604	0.281
6.51922	0.264
6.5524	0.041
6.58557	0.006
6.61875	0.007
6.65193	0.015
6.68511	0.104
6.71829	0.314
6.75147	0.349
6.78465	0.266
6.81783	0.171
6.85101	0.078
6.88419	0.081
6.91737	0.128
6.95055	0.049
6.98373	0.062
7.01691	0.151
7.05009	0.281
7.08327	0.375
7.11644	0.438
7.14962	0.458
7.1828	0.424
7.21598	0.365
7.24916	0.386
7.28234	0.471
7.31552	0.442
7.3487	0.337
7.38188	0.195
7.41506	0.001
7.44824	0.006
7.48142	0.063
7.5146	0.228
7.54778	0.256
7.58096	0.155
7.61414	0.219
7.64731	0.24
7.68049	0.244
7.71367	0.224
7.74685	0.18
7.78003	0.115
7.81321	0.07
7.84639	0.087
7.87957	0.115
7.91275	0.181
7.94593	0.195
7.97911	0.13
8.01229	0.029
8.04547	0
8.07865	0.014
8.11183	0.077
8.14501	0.184
8.17818	0.25
8.21136	0.2
8.24454	0.111
8.27772	0.034
8.3109	0
8.34408	0
8.37726	0.037
8.41044	0.176
8.44362	0.367
8.4768	0.472
8.50998	0.515
8.54316	0.454
8.57634	0.334
8.60952	0.243
8.6427	0.306
8.67588	0.361
8.70905	0.264
8.74223	0.389
8.77541	0.563
8.80859	0.645
8.84177	0.669
8.87495	0.674
8.90813	0.665
8.94131	0.636
8.97449	0.606
9.00767	0.641
9.04085	0.664
9.07403	0.662
9.10721	0.626
9.14039	0.543
9.17357	0.334
9.20675	0.169
9.23992	0.197
9.2731	0.363
9.30628	0.37
9.33946	0.276
9.37264	0.176
9.40582	0.203
9.439	0.265
9.47218	0.269
9.50536	0.273
9.53854	0.3
9.57172	0.3
9.6049	0.235
9.63808	0.298
9.67126	0.431
9.70444	0.539
9.73762	0.642
9.77079	0.717
9.80397	0.743
9.83715	0.754
9.87033	0.76
9.90351	0.774
9.93669	0.794
9.96987	0.803
10.0031	0.812
10.0362	0.818
10.0694	0.806
10.1026	0.8
10.1358	0.787
10.1689	0.782
10.2021	0.778
10.2353	0.756
10.2685	0.723
10.3017	0.694
10.3348	0.666
10.368	0.648
10.4012	0.629
10.4344	0.62
10.4676	0.632
10.5007	0.653
10.5339	0.709
10.5671	0.739
10.6003	0.762
10.6335	0.766
10.6666	0.766
10.6998	0.768
10.733	0.787
10.7662	0.819
10.7994	0.836
10.8325	0.859
10.8657	0.861
10.8989	0.865
10.9321	0.867
10.9653	0.867
10.9984	0.864
11.0316	0.861
11.0648	0.855
11.098	0.851
11.1311	0.852
11.1643	0.856
11.1975	0.86
11.2307	0.861
11.2639	0.857
11.297	0.848
11.3302	0.841
11.3634	0.837
11.3966	0.803
11.4298	0.766
11.4629	0.699
11.4961	0.638
11.5293	0.511
11.5625	0.386
11.5957	0.414
11.6288	0.491
11.662	0.596
11.6952	0.699
11.7284	0.737
11.7616	0.749
11.7947	0.747
11.8279	0.738
11.8611	0.73
11.8943	0.702
11.9275	0.673
11.9606	0.667
11.9938	0.679
12.027	0.707
12.0602	0.726
12.0934	0.722
12.1265	0.699
12.1597	0.667
12.1929	0.61
12.2261	0.606
12.2592	0.636
12.2924	0.714
12.3256	0.745
12.3588	0.76
12.392	0.776
12.4251	0.782
12.4583	0.778
12.4915	0.778
12.5247	0.764
12.5579	0.734
12.591	0.702
12.6242	0.66
12.6574	0.601
12.6906	0.509
12.7238	0.414
12.7569	0.334
12.7901	0.313
12.8233	0.349
12.8565	0.494
12.8897	0.56
12.9228	0.577
12.956	0.539
12.9892	0.463
13.0224	0.377
13.0556	0.37
13.0887	0.397
13.1219	0.456
13.1551	0.515
13.1883	0.563
13.2214	0.581
13.2546	0.584
13.2878	0.561
13.321	0.476
13.3542	0.355
13.3873	0.252
13.4205	0.154
13.4537	0.112
13.4869	0.1
13.5201	0.108
13.5532	0.171
13.5864	0.257
13.6196	0.369
13.6528	0.426
13.686	0.472
13.7191	0.52
13.7523	0.544
13.7855	0.571
13.8187	0.589
13.8519	0.617
13.885	0.637
13.9182	0.649
13.9514	0.657
13.9846	0.658
14.0178	0.658
14.0509	0.658
14.0841	0.656
14.1173	0.653
14.1505	0.645
14.1837	0.64
14.2168	0.63
14.25	0.618
14.2832	0.605
14.3164	0.596
14.3495	0.575
14.3827	0.555
14.4159	0.524
14.4491	0.474
14.4823	0.436
14.5154	0.413
14.5486	0.414
14.5818	0.42
14.615	0.422
14.6482	0.422
14.6813	0.401
14.7145	0.393
14.7477	0.379
14.7809	0.373
14.8141	0.381
14.8472	0.382
14.8804	0.394
14.9136	0.399
14.9468	0.411
14.98	0.403
