Infrared Spectrum: P-METHOXY CARBANILIC ACID, n-PROPYL ESTER
Formula: C11 H15 N O3
CAS: 91247-72-2
State: SOLID (1.7 mg / 200 mg KBr)
Class: COBLENTZ
Instrument: Not specified, most likely a grating spectrometer.
Sampling: TRANSMISSION
Resolution: 4
Origin: CITRUS EXPERIMENT STATION, UNIVERSITY OF FLORIDA (G. EDWARDS)
MICROMETERS	TRANSMITTANCE
2.04	0.93
2.07317	0.933
2.10635	0.933
2.13952	0.932
2.1727	0.934
2.20587	0.932
2.23905	0.932
2.27222	0.933
2.30539	0.933
2.33857	0.933
2.37174	0.933
2.40492	0.934
2.43809	0.94
2.47127	0.934
2.50444	0.94
2.53762	0.944
2.57079	0.946
2.60396	0.937
2.63714	0.936
2.67031	0.94
2.70349	0.938
2.73666	0.934
2.76984	0.92
2.80301	0.914
2.83618	0.909
2.86936	0.896
2.90253	0.888
2.93571	0.84
2.96888	0.584
3.00206	0.302
3.03523	0.691
3.0684	0.853
3.10158	0.898
3.13475	0.924
3.16793	0.922
3.2011	0.92
3.23428	0.92
3.26745	0.881
3.30062	0.872
3.3338	0.769
3.36697	0.704
3.40015	0.784
3.43332	0.786
3.4665	0.868
3.49967	0.852
3.53285	0.918
3.56602	0.92
3.59919	0.917
3.63237	0.932
3.66554	0.937
3.69872	0.94
3.73189	0.944
3.76507	0.945
3.79824	0.942
3.83141	0.941
3.86459	0.945
3.89776	0.942
3.93094	0.941
3.96411	0.941
3.99729	0.942
4.03046	0.945
4.06363	0.946
4.09681	0.945
4.12998	0.945
4.16316	0.941
4.19633	0.933
4.22951	0.941
4.26268	0.942
4.29585	0.946
4.32903	0.94
4.3622	0.938
4.39538	0.942
4.42855	0.945
4.46173	0.945
4.4949	0.945
4.52808	0.944
4.56125	0.946
4.59442	0.949
4.6276	0.948
4.66077	0.95
4.69395	0.949
4.72712	0.945
4.7603	0.945
4.79347	0.942
4.82664	0.933
4.85982	0.926
4.89299	0.936
4.92617	0.945
4.95934	0.938
4.99252	0.941
5.02569	0.944
5.05886	0.945
5.09204	0.944
5.12521	0.945
5.15839	0.945
5.19156	0.945
5.22474	0.941
5.25791	0.942
5.29108	0.937
5.32426	0.93
5.35743	0.936
5.39061	0.932
5.42378	0.933
5.45696	0.934
5.49013	0.924
5.52331	0.917
5.55648	0.916
5.58965	0.91
5.62283	0.892
5.656	0.87
5.68918	0.81
5.72235	0.766
5.75553	0.707
5.7887	0.589
5.82187	0.368
5.85505	0.173
5.88822	0.221
5.9214	0.592
5.95457	0.681
5.98775	0.713
6.02092	0.797
6.05409	0.833
6.08727	0.838
6.12044	0.838
6.15362	0.805
6.18679	0.802
6.21997	0.704
6.25314	0.544
6.28631	0.814
6.31949	0.826
6.35266	0.789
6.38584	0.676
6.41901	0.528
6.45219	0.282
6.48536	0.107
6.51854	0.129
6.55171	0.264
6.58488	0.378
6.61806	0.625
6.65123	0.685
6.68441	0.701
6.71758	0.663
6.75076	0.627
6.78393	0.616
6.8171	0.656
6.85028	0.764
6.88345	0.777
6.91663	0.776
6.9498	0.814
6.98298	0.764
7.01615	0.507
7.04932	0.592
7.0825	0.736
7.11567	0.821
7.14885	0.809
7.18202	0.81
7.2152	0.829
7.24837	0.857
7.28154	0.852
7.31472	0.844
7.34789	0.829
7.38107	0.805
7.41424	0.794
7.44742	0.764
7.48059	0.717
7.51377	0.667
7.54694	0.579
7.58011	0.39
7.61329	0.569
7.64646	0.523
7.67964	0.254
7.71281	0.363
7.74599	0.597
7.77916	0.684
7.81233	0.683
7.84551	0.619
7.87868	0.601
7.91186	0.575
7.94503	0.491
7.97821	0.344
8.01138	0.271
8.04455	0.177
8.07773	0.083
8.1109	0.042
8.14408	0.086
8.17725	0.207
8.21043	0.395
8.2436	0.527
8.27678	0.627
8.30995	0.688
8.34312	0.74
8.3763	0.765
8.40947	0.743
8.44265	0.516
8.47582	0.28
8.509	0.544
8.54217	0.709
8.57534	0.785
8.60852	0.817
8.64169	0.83
8.67487	0.836
8.70804	0.841
8.74122	0.841
8.77439	0.814
8.80756	0.808
8.84074	0.837
8.87391	0.862
8.90709	0.873
8.94026	0.864
8.97344	0.818
9.00661	0.802
9.03978	0.854
9.07296	0.873
9.10613	0.872
9.13931	0.849
9.17248	0.821
9.20566	0.768
9.23883	0.668
9.27201	0.458
9.30518	0.231
9.33835	0.206
9.37153	0.388
9.4047	0.608
9.43788	0.711
9.47105	0.79
9.50423	0.812
9.5374	0.812
9.57057	0.78
9.60375	0.744
9.63692	0.637
9.6701	0.424
9.70327	0.214
9.73645	0.358
9.76962	0.577
9.80279	0.689
9.83597	0.708
9.86914	0.676
9.90232	0.808
9.93549	0.84
9.96867	0.862
10.0018	0.874
10.035	0.896
10.0682	0.906
10.1014	0.909
10.1345	0.905
10.1677	0.892
10.2009	0.868
10.2341	0.824
10.2672	0.854
10.3004	0.892
10.3336	0.906
10.3668	0.912
10.3999	0.916
10.4331	0.914
10.4663	0.886
10.4995	0.868
10.5326	0.908
10.5658	0.917
10.599	0.922
10.6322	0.925
10.6653	0.929
10.6985	0.932
10.7317	0.932
10.7649	0.928
10.798	0.924
10.8312	0.902
10.8644	0.884
10.8975	0.856
10.9307	0.844
10.9639	0.89
10.9971	0.913
11.0302	0.921
11.0634	0.93
11.0966	0.926
11.1298	0.921
11.1629	0.916
11.1961	0.922
11.2293	0.932
11.2625	0.934
11.2956	0.936
11.3288	0.937
11.362	0.938
11.3952	0.937
11.4283	0.936
11.4615	0.933
11.4947	0.926
11.5279	0.918
11.561	0.906
11.5942	0.906
11.6274	0.917
11.6606	0.922
11.6937	0.928
11.7269	0.928
11.7601	0.924
11.7933	0.924
11.8264	0.921
11.8596	0.914
11.8928	0.898
11.926	0.876
11.9591	0.824
11.9923	0.739
12.0255	0.581
12.0586	0.488
12.0918	0.447
12.125	0.6
12.1582	0.712
12.1913	0.82
12.2245	0.84
12.2577	0.806
12.2909	0.739
12.324	0.757
12.3572	0.781
12.3904	0.82
12.4236	0.877
12.4567	0.906
12.4899	0.91
12.5231	0.912
12.5563	0.913
12.5894	0.913
12.6226	0.912
12.6558	0.904
12.689	0.893
12.7221	0.884
12.7553	0.861
12.7885	0.816
12.8217	0.786
12.8548	0.793
12.888	0.81
12.9212	0.794
12.9544	0.761
12.9875	0.776
13.0207	0.81
13.0539	0.834
13.0871	0.818
13.1202	0.81
13.1534	0.83
13.1866	0.852
13.2198	0.888
13.2529	0.904
13.2861	0.908
13.3193	0.906
13.3524	0.893
13.3856	0.885
13.4188	0.874
13.452	0.83
13.4851	0.762
13.5183	0.689
13.5515	0.665
13.5847	0.723
13.6178	0.788
13.651	0.828
13.6842	0.85
13.7174	0.87
13.7505	0.876
13.7837	0.882
13.8169	0.885
13.8501	0.888
13.8832	0.893
13.9164	0.898
13.9496	0.896
13.9828	0.892
14.0159	0.898
14.0491	0.894
14.0823	0.89
14.1155	0.89
14.1486	0.877
14.1818	0.873
14.215	0.872
14.2482	0.869
14.2813	0.866
14.3145	0.861
14.3477	0.86
14.3809	0.854
14.414	0.85
14.4472	0.846
14.4804	0.837
14.5136	0.832
14.5467	0.829
14.5799	0.828
14.6131	0.821
14.6462	0.813
14.6794	0.809
14.7126	0.8
14.7458	0.797
14.7789	0.794
14.8121	0.78
14.8453	0.77
14.8785	0.762
14.9116	0.745
14.9448	0.739
14.978	0.773
15.0112	0.782
