Infrared Spectrum: ANILINE, 5-(METHYLSULFONYL)-2-PROPOXY-
Formula: C10 H15 N O3 S
CAS: 91252-74-3
State: SOLID (NUJOL MULL)
Class: COBLENTZ III
Instrument: PERKIN-ELMER 21 (GRATING)
Instrument parameters: NaCl PRISM
Sampling: TRANSMISSION
Resolution: 2
Origin: SMITH KLINE & FRENCH LABS.
MICROMETERS	TRANSMITTANCE
2.002	0.51
2.03624	0.518
2.07049	0.522
2.10473	0.518
2.13898	0.542
2.17322	0.544
2.20746	0.551
2.24171	0.545
2.27595	0.555
2.3102	0.548
2.34444	0.518
2.37868	0.528
2.41293	0.531
2.44717	0.549
2.48142	0.548
2.51566	0.568
2.5499	0.572
2.58415	0.583
2.61839	0.589
2.65264	0.591
2.68688	0.602
2.72112	0.611
2.75537	0.612
2.78961	0.632
2.82386	0.634
2.8581	0.633
2.89234	0.574
2.92659	0.522
2.96083	0.573
2.99508	0.47
3.02932	0.392
3.06356	0.503
3.09781	0.551
3.13205	0.551
3.1663	0.538
3.20054	0.542
3.23478	0.568
3.26903	0.552
3.30327	0.537
3.33752	0.489
3.37176	0.349
3.406	0.118
3.44025	0.059
3.47449	0.07
3.50874	0.073
3.54298	0.07
3.57722	0.33
3.61147	0.501
3.64571	0.607
3.67996	0.621
3.7142	0.621
3.74844	0.641
3.78269	0.641
3.81693	0.65
3.85118	0.661
3.88542	0.657
3.91966	0.662
3.95391	0.669
3.98815	0.689
4.0224	0.714
4.05664	0.724
4.09088	0.721
4.12513	0.733
4.15937	0.732
4.19362	0.753
4.22786	0.745
4.2621	0.738
4.29635	0.744
4.33059	0.75
4.36484	0.751
4.39908	0.76
4.43332	0.758
4.46757	0.757
4.50181	0.771
4.53606	0.773
4.5703	0.778
4.60454	0.786
4.63879	0.775
4.67303	0.785
4.70728	0.786
4.74152	0.792
4.77576	0.799
4.81001	0.792
4.84425	0.795
4.8785	0.8
4.91274	0.797
4.94698	0.799
4.98123	0.799
5.01547	0.801
5.04972	0.806
5.08396	0.808
5.1182	0.813
5.15245	0.816
5.18669	0.822
5.22094	0.828
5.25518	0.835
5.28942	0.836
5.32367	0.839
5.35791	0.834
5.39216	0.84
5.4264	0.846
5.46064	0.851
5.49489	0.853
5.52913	0.856
5.56338	0.859
5.59762	0.866
5.63186	0.875
5.66611	0.875
5.70035	0.87
5.7346	0.862
5.76884	0.869
5.80308	0.869
5.83733	0.852
5.87157	0.879
5.90582	0.88
5.94006	0.878
5.9743	0.87
6.00855	0.864
6.04279	0.848
6.07704	0.828
6.11128	0.768
6.14552	0.6
6.17977	0.438
6.21401	0.495
6.24826	0.663
6.2825	0.745
6.31674	0.682
6.35099	0.583
6.38523	0.722
6.41948	0.79
6.45372	0.841
6.48796	0.844
6.52221	0.824
6.55645	0.778
6.5907	0.643
6.62494	0.389
6.65918	0.258
6.69343	0.431
6.72767	0.568
6.76192	0.54
6.79616	0.422
6.8304	0.2
6.86465	0.109
6.89889	0.124
6.93314	0.211
6.96738	0.293
7.00162	0.427
7.03587	0.49
7.07011	0.562
7.10436	0.63
7.1386	0.689
7.17284	0.724
7.20709	0.589
7.24133	0.464
7.27558	0.35
7.30982	0.244
7.34406	0.46
7.37831	0.5
7.41255	0.61
7.4468	0.668
7.48104	0.691
7.51528	0.689
7.54953	0.68
7.58377	0.615
7.61802	0.509
7.65226	0.475
7.6865	0.423
7.72075	0.253
7.75499	0.2
7.78924	0.188
7.82348	0.244
7.85772	0.246
7.89197	0.252
7.92621	0.342
7.96046	0.509
7.9947	0.534
8.02894	0.442
8.06319	0.353
8.09743	0.263
8.13168	0.282
8.16592	0.4
8.20016	0.504
8.23441	0.585
8.26865	0.63
8.3029	0.671
8.33714	0.704
8.37138	0.725
8.40563	0.75
8.43987	0.766
8.47412	0.773
8.50836	0.775
8.5426	0.76
8.57685	0.717
8.61109	0.68
8.64534	0.609
8.67958	0.5
8.71382	0.38
8.74807	0.373
8.78231	0.489
8.81656	0.431
8.8508	0.281
8.88504	0.236
8.91929	0.16
8.95353	0.236
8.98778	0.3
9.02202	0.414
9.05626	0.447
9.09051	0.462
9.12475	0.498
9.159	0.485
9.19324	0.496
9.22748	0.551
9.26173	0.589
9.29597	0.6
9.33022	0.589
9.36446	0.526
9.3987	0.432
9.43295	0.408
9.46719	0.434
9.50144	0.479
9.53568	0.518
9.56992	0.58
9.60417	0.607
9.63841	0.627
9.67266	0.643
9.7069	0.656
9.74114	0.663
9.77539	0.683
9.80963	0.7
9.84388	0.712
9.87812	0.712
9.91236	0.723
9.94661	0.738
9.98085	0.751
10.0151	0.762
10.0493	0.774
10.0836	0.779
10.1178	0.783
10.1521	0.778
10.1863	0.714
10.2206	0.619
10.2548	0.456
10.289	0.33
10.3233	0.276
10.3575	0.353
10.3918	0.476
10.426	0.42
10.4603	0.306
10.4945	0.333
10.5288	0.45
10.563	0.532
10.5972	0.58
10.6315	0.59
10.6657	0.616
10.7	0.618
10.7342	0.6
10.7685	0.617
10.8027	0.64
10.837	0.641
10.8712	0.647
10.9054	0.658
10.9397	0.673
10.9739	0.678
11.0082	0.688
11.0424	0.696
11.0767	0.702
11.1109	0.727
11.1451	0.732
11.1794	0.73
11.2136	0.723
11.2479	0.735
11.2821	0.733
11.3164	0.723
11.3506	0.719
11.3849	0.716
11.4191	0.701
11.4533	0.665
11.4876	0.667
11.5218	0.686
11.5561	0.701
11.5903	0.662
11.6246	0.599
11.6588	0.658
11.6931	0.705
11.7273	0.739
11.7615	0.746
11.7958	0.758
11.83	0.772
11.8643	0.774
11.8985	0.79
11.9328	0.792
11.967	0.792
12.0012	0.794
12.0355	0.8
12.0697	0.801
12.104	0.805
12.1382	0.797
12.1725	0.799
12.2067	0.785
12.241	0.683
12.2752	0.59
12.3094	0.641
12.3437	0.679
12.3779	0.694
12.4122	0.707
12.4464	0.735
12.4807	0.742
12.5149	0.708
12.5492	0.7
12.5834	0.769
12.6176	0.796
12.6519	0.797
12.6861	0.805
12.7204	0.812
12.7546	0.808
12.7889	0.809
12.8231	0.801
12.8573	0.79
12.8916	0.778
12.9258	0.757
12.9601	0.7
12.9943	0.635
13.0286	0.52
13.0628	0.371
13.0971	0.278
13.1313	0.261
13.1655	0.288
13.1998	0.4
13.234	0.459
13.2683	0.514
13.3025	0.572
13.3368	0.607
13.371	0.615
13.4053	0.623
13.4395	0.649
13.4737	0.658
13.508	0.682
13.5422	0.683
13.5765	0.693
13.6107	0.683
13.645	0.684
13.6792	0.682
13.7134	0.672
13.7477	0.667
13.7819	0.676
13.8162	0.69
13.8504	0.678
13.8847	0.691
13.9189	0.68
13.9532	0.695
13.9874	0.704
14.0216	0.723
14.0559	0.721
14.0901	0.738
14.1244	0.749
14.1586	0.753
14.1929	0.758
14.2271	0.764
14.2614	0.763
14.2956	0.763
14.3298	0.771
14.3641	0.771
14.3983	0.767
14.4326	0.777
14.4668	0.761
14.5011	0.767
14.5353	0.773
14.5695	0.768
14.6038	0.756
14.638	0.755
14.6723	0.761
14.7065	0.752
14.7408	0.749
14.775	0.757
14.8093	0.75
14.8435	0.757
14.8777	0.744
14.912	0.735
14.9462	0.745
14.9805	0.746
15.0147	0.738
15.049	0.724
15.0832	0.732
15.1175	0.719
15.1517	0.718
15.1859	0.704
15.2202	0.712
15.2544	0.705
15.2887	0.697
15.3229	0.693
15.3572	0.693
15.3914	0.684
15.4256	0.691
