Infrared Spectrum: 2-Norbornanol, 1,2,7,7-tetramethyl-
Formula: C11 H20 O
CAS: 91278-70-5
State: SOLUTION (20% CCl4 FOR 3900-1300, 20% CS2 FOR 1300-480 CM^-^1) VS SOLVENT
Class: COBLENTZ III
Instrument: CARY 90 (GRATING)
Instrument parameters: GRATING CHANGES: 3000, 2000, 1200 CM^-^1
Sampling: TRANSMISSION
Path length: 0.0097 CM, AND 0.0096 CM
Resolution: 2
Origin: WESTERN REGIONAL RES. USDA
1/CM	TRANSMITTANCE
487	0.6863
496	0.6806
505	0.6525
514	0.6353
523	0.6879
532	0.5575
541	0.7186
550	0.7416
559	0.729
568	0.6582
577	0.7481
586	0.7735
595	0.7824
604	0.7314
613	0.8075
622	0.8206
631	0.8053
640	0.8018
649	0.8492
658	0.8609
667	0.8679
676	0.8807
685	0.863
694	0.6605
703	0.8387
712	0.8862
721	0.8417
730	0.8854
739	0.8477
748	0.7145
757	0.631
766	0.803
775	0.8683
784	0.8135
793	0.8688
802	0.7212
811	0.8214
820	0.7316
829	0.8501
838	0.7582
847	0.7059
856	0.3784
865	0.8354
874	0.8382
883	0.8292
892	0.6583
901	0.4069
910	0.4284
919	0.435
928	0.0739
937	0.4705
946	0.6369
955	0.5351
964	0.7985
973	0.8564
982	0.6946
991	0.5483
1000	0.8467
1009	0.7616
1018	0.7091
1027	0.7984
1036	0.6927
1045	0.5807
1054	0.4638
1063	0.3148
1072	0.1681
1081	0.2358
1090	0.0795
1099	0.0611
1108	0.1726
1117	0.1415
1126	0.3996
1135	0.5133
1144	0.3763
1153	0.2016
1162	0.3886
1171	0.5756
1180	0.5958
1189	0.3589
1198	0.3053
1207	0.5322
1216	0.5424
1225	0.608
1234	0.5403
1243	0.5075
1252	0.5414
1261	0.4869
1270	0.2853
1279	0.4117
1288	0.3621
1297	0.4894
1306	0.7119
1315	0.7349
1324	0.7058
1333	0.6549
1342	0.7044
1351	0.76
1360	0.7611
1369	0.4731
1378	0.4675
1387	0.5706
1396	0.7733
1405	0.8212
1414	0.8247
1423	0.8189
1432	0.7831
1441	0.6443
1450	0.4748
1459	0.5001
1468	0.655
1477	0.7142
1486	0.6655
1495	0.5906
1504	0.8088
1513	0.8364
1522	0.846
1531	0.8503
1540	0.8518
1549	0.8511
1558	0.8489
1567	0.8505
1576	0.855
1585	0.859
1594	0.8626
1603	0.8665
1612	0.8703
1621	0.8715
1630	0.8687
1639	0.8711
1648	0.8763
1657	0.8789
1666	0.881
1675	0.883
1684	0.8835
1693	0.8834
1702	0.8822
1711	0.8796
1720	0.8739
1729	0.8657
1738	0.8566
1747	0.8543
1756	0.8702
1765	0.8846
1774	0.8848
1783	0.8827
1792	0.8842
1801	0.8853
1810	0.8862
1819	0.8875
1828	0.8883
1837	0.8884
1846	0.8889
1855	0.8897
1864	0.8907
1873	0.8915
1882	0.8923
1891	0.8923
1900	0.892
1909	0.892
1918	0.8925
1927	0.8931
1936	0.894
1945	0.8954
1954	0.8967
1963	0.8978
1972	0.8988
1981	0.8991
1990	0.8993
1999	0.899
2008	0.8978
2017	0.8969
2026	0.8958
2035	0.8944
2044	0.893
2053	0.889
2062	0.8852
2071	0.8819
2080	0.8812
2089	0.8823
2098	0.8837
2107	0.8847
2116	0.8854
2125	0.8861
2134	0.8865
2143	0.8869
2152	0.8873
2161	0.8877
2170	0.8881
2179	0.8885
2188	0.8889
2197	0.8893
2206	0.8897
2215	0.8901
2224	0.8905
2233	0.8909
2242	0.8913
2251	0.8912
2260	0.891
2269	0.8909
2278	0.8908
2287	0.8907
2296	0.8909
2305	0.891
2314	0.8912
2323	0.8911
2332	0.8896
2341	0.8882
2350	0.8898
2359	0.8933
2368	0.8947
2377	0.8959
2386	0.8969
2395	0.8977
2404	0.8984
2413	0.8992
2422	0.8998
2431	0.9001
2440	0.9005
2449	0.9009
2458	0.9006
2467	0.9003
2476	0.9001
2485	0.8998
2494	0.8997
2503	0.9002
2512	0.9007
2521	0.9012
2530	0.9018
2539	0.9025
2548	0.9032
2557	0.9036
2566	0.9036
2575	0.9035
2584	0.9045
2593	0.9059
2602	0.9079
2611	0.911
2620	0.9134
2629	0.9152
2638	0.9115
2647	0.9082
2656	0.9068
2665	0.9074
2674	0.9089
2683	0.9097
2692	0.9098
2701	0.9065
2710	0.9018
2719	0.8964
2728	0.8876
2737	0.8921
2746	0.8979
2755	0.8984
2764	0.8953
2773	0.8936
2782	0.8969
2791	0.8999
2800	0.8965
2809	0.8888
2818	0.8778
2827	0.8651
2836	0.852
2845	0.8312
2854	0.7945
2863	0.6514
2872	0.3371
2881	0.2728
2890	0.3774
2899	0.364
2908	0.2945
2917	0.2434
2926	0.1841
2935	0.1422
2944	0.1042
2953	0.0788
2962	0.0753
2971	0.1148
2980	0.2764
2989	0.3077
2998	0.2884
3007	0.5
3016	0.7194
3025	0.7387
3034	0.7173
3043	0.8052
3052	0.848
3061	0.8708
3070	0.8842
3079	0.8942
3088	0.899
3097	0.9034
3106	0.9056
3115	0.9075
3124	0.909
3133	0.9092
3142	0.9094
3151	0.9094
3160	0.9093
3169	0.91
3178	0.9109
3187	0.9117
3196	0.9126
3205	0.9134
3214	0.9144
3223	0.9155
3232	0.9166
3241	0.9177
3250	0.9185
3259	0.9187
3268	0.9189
3277	0.9191
3286	0.9192
3295	0.9191
3304	0.9184
3313	0.9176
3322	0.9164
3331	0.9148
3340	0.9129
3349	0.9101
3358	0.9073
3367	0.904
3376	0.9006
3385	0.8967
3394	0.8929
3403	0.8883
3412	0.8834
3421	0.8783
3430	0.8734
3439	0.8681
3448	0.8624
3457	0.8556
3466	0.8466
3475	0.8374
3484	0.8283
3493	0.8204
3502	0.8149
3511	0.8157
3520	0.8207
3529	0.8314
3538	0.8435
3547	0.8559
3556	0.8672
3565	0.8768
3574	0.8809
3583	0.8773
3592	0.8686
3601	0.8164
3610	0.68
3619	0.5664
3628	0.6739
3637	0.8105
3646	0.8591
3655	0.8718
3664	0.8823
3673	0.8907
3682	0.8967
3691	0.9019
3700	0.9065
3709	0.9096
3718	0.9128
3727	0.9141
3736	0.9155
3745	0.9165
3754	0.9166
3763	0.9166
3772	0.9167
3781	0.9169
3790	0.9173
3799	0.9176
