Infrared Spectrum: Triazolo[4,5-d]pyrimidine, 1H-v-, 5-amino-7-ethoxy-
Formula: C6 H8 N6 O
CAS: 91314-05-5
State: SOLID (0.6 mg / 650 mg KBr DISC)
Class: COBLENTZ III
Instrument: PERKIN-ELMER 21 (GRATING)
Instrument parameters: FILTER CHANGE ABOUT 1090 CM^-^1
Sampling: TRANSMISSION
Resolution: 2
Origin: SOUTHERN RESEARCH INSTITUTE
1/CM	TRANSMITTANCE
601	0.9812
610.037	0.9854
619.074	0.975
628.111	0.964
637.148	0.9571
646.185	0.9422
655.222	0.9156
664.259	0.858
673.296	0.9286
682.334	0.8877
691.371	0.8569
700.408	0.9205
709.445	0.8888
718.482	0.8565
727.519	0.8075
736.556	0.7703
745.593	0.8556
754.63	0.8388
763.667	0.8162
772.704	0.7828
781.741	0.735
790.778	0.6348
799.815	0.7175
808.852	0.8088
817.889	0.7833
826.926	0.7486
835.964	0.6801
845.001	0.5319
854.038	0.6663
863.075	0.5558
872.112	0.5293
881.149	0.5576
890.186	0.7366
899.223	0.765
908.26	0.7731
917.297	0.774
926.334	0.7731
935.371	0.7689
944.408	0.7591
953.445	0.7443
962.482	0.7172
971.519	0.6491
980.556	0.5631
989.594	0.7381
998.631	0.7353
1007.67	0.7016
1016.7	0.5543
1025.74	0.7371
1034.78	0.7438
1043.82	0.7869
1052.85	0.7856
1061.89	0.7353
1070.93	0.6938
1079.96	0.5485
1089	0.7893
1098.04	0.7855
1107.08	0.8098
1116.11	0.8083
1125.15	0.8027
1134.19	0.7938
1143.22	0.7727
1152.26	0.7445
1161.3	0.7446
1170.33	0.7194
1179.37	0.6675
1188.41	0.4609
1197.45	0.7308
1206.48	0.7363
1215.52	0.6675
1224.56	0.4833
1233.59	0.3453
1242.63	0.7119
1251.67	0.8243
1260.71	0.8184
1269.74	0.7852
1278.78	0.7666
1287.82	0.6666
1296.85	0.5254
1305.89	0.7519
1314.93	0.7059
1323.96	0.6492
1333	0.5647
1342.04	0.4139
1351.08	0.387
1360.11	0.5158
1369.15	0.6896
1378.19	0.5372
1387.22	0.3351
1396.26	0.5951
1405.3	0.5216
1414.34	0.6938
1423.37	0.6401
1432.41	0.462
1441.45	0.4542
1450.48	0.6105
1459.52	0.6053
1468.56	0.4968
1477.59	0.5782
1486.63	0.5449
1495.67	0.3975
1504.71	0.4069
1513.74	0.6881
1522.78	0.6997
1531.82	0.6606
1540.85	0.6208
1549.89	0.5745
1558.93	0.4893
1567.97	0.4089
1577	0.3144
1586.04	0.1797
1595.08	0.1864
1604.11	0.1917
1613.15	0.1676
1622.19	0.2515
1631.22	0.3191
1640.26	0.3186
1649.3	0.3813
1658.34	0.5272
1667.37	0.5774
1676.41	0.6534
1685.45	0.6851
1694.48	0.7024
1703.52	0.7273
1712.56	0.7549
1721.6	0.7834
1730.63	0.8082
1739.67	0.8249
1748.71	0.8384
1757.74	0.8495
1766.78	0.8599
1775.82	0.8697
1784.85	0.8781
1793.89	0.8854
1802.93	0.8911
1811.97	0.8953
1821	0.8993
1830.04	0.9033
1839.08	0.9065
1848.11	0.909
1857.15	0.9105
1866.19	0.9098
1875.23	0.9078
1884.26	0.9023
1893.3	0.9015
1902.34	0.9079
1911.37	0.9091
1920.41	0.9093
1929.45	0.9139
1938.48	0.9194
1947.52	0.9168
1956.56	0.9142
1965.6	0.9119
1974.63	0.9094
1983.67	0.9066
1992.71	0.9034
2001.74	0.8999
2010.78	0.897
2019.82	0.8947
2028.86	0.893
2037.89	0.8913
2046.93	0.8894
2055.97	0.8871
2065	0.8848
2074.04	0.8817
2083.08	0.8787
2092.11	0.8732
2101.15	0.8732
2110.19	0.8757
2119.23	0.872
2128.26	0.8693
2137.3	0.8675
2146.34	0.8672
2155.37	0.8679
2164.41	0.8676
2173.45	0.8653
2182.49	0.863
2191.52	0.8587
2200.56	0.8529
2209.6	0.8451
2218.63	0.8402
2227.67	0.8404
2236.71	0.8448
2245.74	0.8478
2254.78	0.8435
2263.82	0.84
2272.86	0.837
2281.89	0.8277
2290.93	0.821
2299.97	0.8196
2309	0.8129
2318.04	0.8043
2327.08	0.8024
2336.12	0.8028
2345.15	0.7989
2354.19	0.793
2363.23	0.7873
2372.26	0.7814
2381.3	0.7759
2390.34	0.773
2399.37	0.769
2408.41	0.7616
2417.45	0.755
2426.49	0.7488
2435.52	0.7426
2444.56	0.7373
2453.6	0.7336
2462.63	0.731
2471.67	0.7289
2480.71	0.7269
2489.75	0.7191
2498.78	0.7261
2507.82	0.7231
2516.86	0.71
2525.89	0.7024
2534.93	0.6998
2543.97	0.6986
2553	0.696
2562.04	0.6889
2571.08	0.6819
2580.12	0.6818
2589.15	0.6801
2598.19	0.6738
2607.23	0.6649
2616.26	0.6585
2625.3	0.6532
2634.34	0.6488
2643.38	0.6453
2652.41	0.6417
2661.45	0.638
2670.49	0.6344
2679.52	0.6291
2688.56	0.6225
2697.6	0.6161
2706.63	0.611
2715.67	0.6066
2724.71	0.6008
2733.75	0.5916
2742.78	0.5817
2751.82	0.5758
2760.86	0.5721
2769.89	0.5694
2778.93	0.5669
2787.97	0.5751
2797.01	0.5765
2806.04	0.5859
2815.08	0.5974
2824.12	0.608
2833.15	0.6175
2842.19	0.6211
2851.23	0.6129
2860.26	0.605
2869.3	0.5986
2878.34	0.5952
2887.38	0.5939
2896.41	0.5978
2905.45	0.6017
2914.49	0.6007
2923.52	0.5981
2932.56	0.5966
2941.6	0.5952
2950.64	0.5933
2959.67	0.5909
2968.71	0.5904
2977.75	0.5936
2986.78	0.6011
2995.82	0.6118
3004.86	0.6235
3013.89	0.6356
3022.93	0.6441
3031.97	0.6572
3041.01	0.66
3050.04	0.6652
3059.08	0.6634
3068.12	0.6511
3077.15	0.6366
3086.19	0.6381
3095.23	0.646
3104.27	0.6572
3113.3	0.6602
3122.34	0.676
3131.38	0.6812
3140.41	0.6858
3149.45	0.6895
3158.49	0.6931
3167.52	0.6975
3176.56	0.7021
3185.6	0.7028
3194.64	0.7017
3203.67	0.7011
3212.71	0.7005
3221.75	0.6988
3230.78	0.7
3239.82	0.7061
3248.86	0.7061
3257.9	0.6996
3266.93	0.7028
3275.97	0.704
3285.01	0.6996
3294.04	0.6944
3303.08	0.6893
3312.12	0.6834
3321.15	0.6639
3330.19	0.6503
3339.23	0.6439
3348.27	0.6353
3357.3	0.624
3366.34	0.6113
3375.38	0.5795
3384.41	0.5393
3393.45	0.4936
3402.49	0.4234
3411.53	0.365
3420.56	0.3597
3429.6	0.4261
3438.64	0.5179
3447.67	0.64
3456.71	0.6487
3465.75	0.6456
3474.78	0.6399
3483.82	0.6264
3492.86	0.6058
3501.9	0.5701
3510.93	0.5308
3519.97	0.5122
3529.01	0.5467
3538.04	0.6112
3547.08	0.6831
3556.12	0.7021
3565.16	0.719
3574.19	0.7352
3583.23	0.7395
3592.27	0.7458
3601.3	0.752
3610.34	0.7588
3619.38	0.769
3628.41	0.7809
3637.45	0.7977
3646.49	0.7992
3655.53	0.8006
3664.56	0.8083
3673.6	0.8134
3682.64	0.8146
3691.67	0.8179
3700.71	0.8177
3709.75	0.8127
3718.79	0.8094
3727.82	0.8123
3736.86	0.8177
3745.9	0.8176
3754.93	0.8157
3763.97	0.815
3773.01	0.8166
3782.04	0.8165
3791.08	0.8124
3800.12	0.8105
3809.16	0.8095
3818.19	0.8098
3827.23	0.8113
3836.27	0.813
3845.3	0.8141
3854.34	0.8166
3863.38	0.818
3872.42	0.8182
3881.45	0.8187
3890.49	0.817
3899.53	0.8084
3908.56	0.8109
3917.6	0.8046
3926.64	0.802
3935.67	0.8051
3944.71	0.7999
3953.75	0.7956
3962.79	0.8017
3971.82	0.806
3980.86	0.8049
3989.9	0.8003
3998.93	0.7925
4007.97	0.7787
