Infrared Spectrum: n-PROPYLSULFONYL-2-PROPANONE
Formula: C6 H12 O3 S
CAS: 91313-63-2
State: SOLID (NEAT)
Melting point: 146-147 C
Class: COBLENTZ
Instrument: Not specified, most likely a prism, grating, or hybrid spectrometer.
Sampling: TRANSMISSION
Resolution: 4
Origin: EASTMAN KODAK COMPANY, RESEARCH LABORATORIES, ROCHESTER, N.Y.
MICROMETERS	TRANSMITTANCE
2.02	0.87
2.06004	0.878
2.10008	0.865
2.14012	0.866
2.18016	0.862
2.2202	0.85
2.26024	0.857
2.30028	0.855
2.34032	0.858
2.38035	0.863
2.42039	0.858
2.46043	0.863
2.50047	0.863
2.54051	0.868
2.58055	0.866
2.62059	0.87
2.66063	0.871
2.70067	0.863
2.74071	0.825
2.78075	0.817
2.82079	0.817
2.86083	0.839
2.90087	0.839
2.94091	0.839
2.98095	0.845
3.02099	0.853
3.06102	0.85
3.10106	0.852
3.1411	0.852
3.18114	0.853
3.22118	0.857
3.26122	0.85
3.30126	0.816
3.3413	0.646
3.38134	0.551
3.42138	0.633
3.46142	0.711
3.50146	0.824
3.5415	0.857
3.58154	0.863
3.62158	0.866
3.66162	0.87
3.70166	0.876
3.74169	0.88
3.78173	0.881
3.82177	0.88
3.86181	0.883
3.90185	0.881
3.94189	0.885
3.98193	0.889
4.02197	0.881
4.06201	0.873
4.10205	0.866
4.14209	0.878
4.18213	0.88
4.22217	0.88
4.26221	0.899
4.30225	0.909
4.34229	0.898
4.38233	0.883
4.42236	0.881
4.4624	0.883
4.50244	0.886
4.54248	0.889
4.58252	0.889
4.62256	0.883
4.6626	0.889
4.70264	0.888
4.74268	0.891
4.78272	0.894
4.82276	0.899
4.8628	0.891
4.90284	0.891
4.94288	0.893
4.98292	0.896
5.02296	0.893
5.063	0.888
5.10303	0.889
5.14307	0.893
5.18311	0.893
5.22315	0.893
5.26319	0.899
5.30323	0.899
5.34327	0.894
5.38331	0.896
5.42335	0.891
5.46339	0.899
5.50343	0.891
5.54347	0.883
5.58351	0.88
5.62355	0.88
5.66359	0.86
5.70363	0.83
5.74366	0.77
5.7837	0.561
5.82374	0.178
5.86378	0.21
5.90382	0.495
5.94386	0.804
5.9839	0.809
6.02394	0.84
6.06398	0.845
6.10402	0.839
6.14406	0.832
6.1841	0.835
6.22414	0.85
6.26418	0.858
6.30422	0.865
6.34426	0.852
6.3843	0.866
6.42433	0.871
6.46437	0.87
6.50441	0.873
6.54445	0.87
6.58449	0.865
6.62453	0.862
6.66457	0.862
6.70461	0.86
6.74465	0.852
6.78469	0.804
6.82473	0.65
6.86477	0.656
6.90481	0.72
6.94485	0.75
6.98489	0.72
7.02493	0.648
7.06497	0.62
7.105	0.597
7.14504	0.6
7.18508	0.638
7.22512	0.671
7.26516	0.65
7.3052	0.582
7.34524	0.425
7.38528	0.43
7.42532	0.548
7.46536	0.582
7.5054	0.579
7.54544	0.336
7.58548	0.155
7.62552	0.139
7.66556	0.188
7.7056	0.231
7.74564	0.218
7.78567	0.239
7.82571	0.384
7.86575	0.546
7.90579	0.576
7.94583	0.523
7.98587	0.509
8.02591	0.51
8.06595	0.505
8.10599	0.522
8.14603	0.564
8.18607	0.596
8.22611	0.582
8.26615	0.587
8.30619	0.62
8.34623	0.638
8.38627	0.673
8.42631	0.686
8.46634	0.683
8.50638	0.666
8.54642	0.625
8.58646	0.556
8.6265	0.499
8.66654	0.428
8.70658	0.408
8.74662	0.389
8.78666	0.362
8.8267	0.346
8.86674	0.357
8.90678	0.323
8.94682	0.208
8.98686	0.231
9.0269	0.366
9.06694	0.576
9.10698	0.65
9.14701	0.663
9.18705	0.653
9.22709	0.72
9.26713	0.76
9.30717	0.771
9.34721	0.73
9.38725	0.725
9.42729	0.76
9.46733	0.799
9.50737	0.819
9.54741	0.822
9.58745	0.816
9.62749	0.822
9.66753	0.821
9.70757	0.817
9.74761	0.816
9.78765	0.806
9.82768	0.786
9.86772	0.77
9.90776	0.756
9.9478	0.76
9.98784	0.763
10.0279	0.75
10.0679	0.702
10.108	0.671
10.148	0.673
10.188	0.722
10.2281	0.755
10.2681	0.779
10.3082	0.801
10.3482	0.812
10.3882	0.829
10.4283	0.845
10.4683	0.848
10.5084	0.86
10.5484	0.865
10.5884	0.801
10.6285	0.873
10.6685	0.863
10.7086	0.868
10.7486	0.866
10.7886	0.871
10.8287	0.866
10.8687	0.863
10.9087	0.87
10.9488	0.862
10.9888	0.847
11.0289	0.84
11.0689	0.84
11.1089	0.842
11.149	0.847
11.189	0.844
11.2291	0.84
11.2691	0.835
11.3091	0.814
11.3492	0.788
11.3892	0.793
11.4293	0.783
11.4693	0.76
11.5093	0.729
11.5494	0.692
11.5894	0.666
11.6295	0.665
11.6695	0.679
11.7095	0.701
11.7496	0.711
11.7896	0.717
11.8297	0.73
11.8697	0.732
11.9097	0.737
11.9498	0.743
11.9898	0.74
12.0299	0.738
12.0699	0.738
12.1099	0.73
12.15	0.719
12.19	0.694
12.23	0.668
12.2701	0.628
12.3101	0.609
12.3502	0.607
12.3902	0.63
12.4302	0.678
12.4703	0.711
12.5103	0.732
12.5504	0.732
12.5904	0.727
12.6304	0.719
12.6705	0.722
12.7105	0.729
12.7506	0.733
12.7906	0.724
12.8306	0.73
12.8707	0.725
12.9107	0.722
12.9508	0.725
12.9908	0.72
13.0308	0.714
13.0709	0.702
13.1109	0.699
13.151	0.701
13.191	0.707
13.231	0.715
13.2711	0.725
13.3111	0.724
13.3512	0.719
13.3912	0.724
13.4312	0.717
13.4713	0.722
13.5113	0.725
13.5513	0.725
13.5914	0.724
13.6314	0.724
13.6715	0.725
13.7115	0.727
13.7515	0.742
13.7916	0.743
13.8316	0.753
13.8717	0.748
13.9117	0.75
13.9517	0.755
13.9918	0.765
14.0318	0.77
14.0719	0.763
14.1119	0.761
14.1519	0.756
14.192	0.752
14.232	0.742
14.2721	0.74
14.3121	0.74
14.3521	0.738
14.3922	0.742
14.4322	0.75
14.4723	0.752
14.5123	0.76
14.5523	0.76
14.5924	0.758
14.6324	0.753
14.6725	0.748
14.7125	0.75
14.7525	0.747
14.7926	0.74
14.8326	0.729
14.8727	0.724
14.9127	0.73
14.9527	0.735
14.9928	0.696
15.0328	0.683
15.0728	0.683
15.1129	0.669
15.1529	0.668
15.193	0.668
15.233	0.66
15.273	0.66
15.3131	0.668
15.3531	0.661
15.3932	0.661
15.4332	0.655
15.4732	0.66
15.5133	0.65
15.5533	0.65
15.5934	0.646
15.6334	0.64
15.6734	0.642
15.7135	0.642
15.7535	0.633
15.7936	0.638
15.8336	0.637
15.8736	0.633
15.9137	0.64
15.9537	0.646
15.9938	0.653
