Infrared Spectrum: p-Tetradecylaniline
Formula: C 20 H 35 N
CAS: 91323-12-5
State: gas
Origin: EPA-IR VAPOR PHASE LIBRARY
1/CM	ABSORBANCE
549.8	0.007726
559.445	0.005856
569.09	0.004656
578.734	0.004336
588.379	0.004376
598.024	0.003886
607.669	0.004166
617.313	0.004926
626.958	0.007066
636.603	0.010666
646.248	0.016776
655.893	0.018076
665.537	0.014076
675.182	0.011456
684.827	0.010256
694.472	0.008926
704.116	0.008586
713.761	0.008456
723.406	0.007866
733.051	0.007106
742.695	0.006456
752.34	0.006226
761.985	0.006466
771.63	0.007056
781.275	0.007696
790.919	0.009616
800.564	0.012636
810.209	0.015836
819.854	0.015626
829.498	0.011296
839.143	0.008326
848.788	0.006366
858.433	0.004716
868.078	0.003776
877.722	0.003196
887.367	0.002956
897.012	0.002556
906.657	0.002216
916.301	0.002176
925.946	0.002106
935.591	0.002326
945.236	0.002156
954.88	0.002076
964.525	0.002346
974.17	0.002196
983.815	0.002416
993.46	0.002296
1003.1	0.001996
1012.75	0.002196
1022.39	0.002586
1032.04	0.002806
1041.68	0.002966
1051.33	0.003166
1060.97	0.003936
1070.62	0.003856
1080.26	0.004656
1089.91	0.003476
1099.55	0.003636
1109.2	0.003086
1118.84	0.004066
1128.49	0.004786
1138.13	0.002776
1147.78	0.002436
1157.42	0.001996
1167.07	0.002986
1176.71	0.007926
1186.36	0.005136
1196	0.002396
1205.64	0.001776
1215.29	0.002846
1224.93	0.003026
1234.58	0.004036
1244.22	0.007396
1253.87	0.014796
1263.51	0.031226
1273.16	0.030136
1282.8	0.013066
1292.45	0.007256
1302.09	0.006426
1311.74	0.005846
1321.38	0.005276
1331.03	0.005546
1340.67	0.007096
1350.32	0.008216
1359.96	0.007126
1369.61	0.005706
1379.25	0.004426
1388.9	0.003646
1398.54	0.002926
1408.18	0.003076
1417.83	0.003626
1427.47	0.004656
1437.12	0.007216
1446.76	0.012446
1456.41	0.016686
1466.05	0.016146
1475.7	0.009916
1485.34	0.006866
1494.99	0.008986
1504.63	0.022976
1514.28	0.058206
1523.92	0.027236
1533.57	0.008356
1543.21	0.004436
1552.86	0.003176
1562.5	0.003046
1572.15	0.003436
1581.79	0.004456
1591.44	0.006036
1601.08	0.009086
1610.73	0.016116
1620.37	0.029866
1630.01	0.033186
1639.66	0.015096
1649.3	0.006216
1658.95	0.003616
1668.59	0.002706
1678.24	0.002086
1687.88	0.001946
1697.53	0.001846
1707.17	0.001816
1716.82	0.001636
1726.46	0.001366
1736.11	0.001336
1745.75	0.001546
1755.4	0.001246
1765.04	0.0009197
1774.69	0.0007668
1784.33	0.0007186
1793.98	0.0007358
1803.62	0.0007466
1813.27	0.0007399
1822.91	0.0008691
1832.55	0.0009604
1842.2	0.001126
1851.84	0.001466
1861.49	0.001916
1871.13	0.001956
1880.78	0.001336
1890.42	0.0010081
1900.07	0.0008397
1909.71	0.0008757
1919.36	0.000985
1929	0.0008581
1938.65	0.0008168
1948.29	0.0007083
1957.94	0.0007389
1967.58	0.0006647
1977.23	0.0006418
1986.87	0.0006525
1996.52	0.0006377
2006.16	0.000706
2015.81	0.0008777
2025.45	0.0009923
2035.1	0.0008698
2044.74	0.0008623
2054.38	0.000908
2064.03	0.0008828
2073.67	0.0008809
2083.32	0.0007614
2092.96	0.0007718
2102.61	0.0007311
2112.25	0.00074
2121.9	0.0006138
2131.54	0.0006203
2141.19	0.000618
2150.83	0.000632
2160.48	0.0006614
2170.12	0.0006605
2179.77	0.0005664
2189.41	0.0005427
2199.06	0.0005239
2208.7	0.0005199
2218.35	0.0005243
2227.99	0.0005547
2237.64	0.0005655
2247.28	0.0005577
2256.92	0.0006254
2266.57	0.0005957
2276.21	0.0008291
2285.86	0.0007704
2295.5	0.0007781
2305.15	0.0007799
2314.79	0.0006606
2324.44	0.0007212
2334.08	0.0008255
2343.73	0.0007267
2353.37	0.0006986
2363.02	0.0006707
2372.66	0.0006825
2382.31	0.0005948
2391.95	0.0005439
2401.6	0.0006302
2411.24	0.000552
2420.89	0.0005705
2430.53	0.000621
2440.18	0.0005768
2449.82	0.0007018
2459.47	0.0006083
2469.11	0.000635
2478.75	0.0005152
2488.4	0.0006726
2498.04	0.0005878
2507.69	0.0006847
2517.33	0.0008859
2526.98	0.001066
2536.62	0.001106
2546.27	0.001056
2555.91	0.0009412
2565.56	0.0010173
2575.2	0.001066
2584.85	0.001226
2594.49	0.001286
2604.14	0.001356
2613.78	0.001476
2623.43	0.001686
2633.07	0.001736
2642.72	0.001906
2652.36	0.001956
2662.01	0.002186
2671.65	0.002326
2681.29	0.002486
2690.94	0.002486
2700.58	0.002126
2710.23	0.002176
2719.87	0.002116
2729.52	0.002286
2739.16	0.002286
2748.81	0.002646
2758.45	0.002746
2768.1	0.003016
2777.74	0.003326
2787.39	0.003996
2797.03	0.004806
2806.68	0.005866
2816.32	0.007516
2825.97	0.010116
2835.61	0.014536
2845.26	0.026656
2854.9	0.063156
2864.55	0.086786
2874.19	0.056416
2883.84	0.042576
2893.48	0.041996
2903.12	0.058576
2912.77	0.091646
2922.41	0.158796
2932.06	0.237786
2941.7	0.165676
2951.35	0.080996
2960.99	0.054706
2970.64	0.044616
2980.28	0.024766
2989.93	0.016996
2999.57	0.017056
3009.22	0.017326
3018.86	0.017556
3028.51	0.020426
3038.15	0.015186
3047.8	0.010226
3057.44	0.008606
3067.09	0.006336
3076.73	0.004916
3086.38	0.004026
3096.02	0.003746
3105.67	0.003126
3115.31	0.002416
3124.95	0.002006
3134.6	0.001786
3144.24	0.001426
3153.89	0.001346
3163.53	0.001076
3173.18	0.0010219
3182.82	0.0009738
3192.47	0.0008051
3202.11	0.001096
3211.76	0.0009721
3221.4	0.0009148
3231.05	0.0008436
3240.69	0.0007395
3250.34	0.0005717
3259.98	0.0005354
3269.63	0.0005953
3279.27	0.0003052
3288.92	0.0003156
3298.56	0.0003164
3308.21	0.0002669
3317.85	0.0002222
3327.49	0.0003005
3337.14	0.0002044
3346.78	0.00034
3356.43	0.0003616
3366.07	0.0006448
3375.72	0.0006366
3385.36	0.001356
3395.01	0.002566
3404.65	0.003936
3414.3	0.003206
3423.94	0.001236
3433.59	0.0008749
3443.23	0.0007181
3452.88	0.0009287
3462.52	0.001176
3472.17	0.001816
3481.81	0.002576
3491.46	0.002256
3501.1	0.001746
3510.75	0.001106
3520.39	0.0007763
3530.04	0.0003932
3539.68	0.0002379
3549.32	0.0001715
3558.97	0.0002056
3568.61	0.0002588
3578.26	0.0001737
3587.9	0.0002623
3597.55	0.0002903
3607.19	0.0004859
3616.84	0.0002917
3626.48	0.0003367
3636.13	0.0004271
3645.77	0.0005168
3655.42	0.0006205
3665.06	0.0004582
3674.71	0.000479
3684.35	0.000616
3694	0.0003213
3703.64	0.0003013
3713.29	0.000257
3722.93	0.000384
3732.58	0.0003744
3742.22	0.0004351
3751.86	0.0003101
3761.51	0.0003833
3771.15	0.0003945
3780.8	0.0003296
3790.44	0.0004553
3800.09	0.0003007
3809.73	0.0003596
3819.38	0.0004043
3829.02	0.0004041
3838.67	0.0005922
3848.31	0.0005646
3857.96	0.0005883
3867.6	0.0009109
3877.25	0.0006642
3886.89	0.0005604
3896.54	0.0004641
3906.18	0.0005837
3915.83	0.0006018
3925.47	0.0004417
3935.12	0.0005471
3944.76	0.0007077
3954.41	0.0006824
3964.05	0.0005152
3973.69	0.0005601
3983.34	0.0005388
3992.98	0.0007069
