Infrared Spectrum: CYCLOHEXYLAMINE, N-SEC-BUTYL-, HYDROCHLORIDE
Formula: C10 H22 Cl N
CAS: 91342-33-5
State: SOLID (KBr DISC)
Class: COBLENTZ III
Instrument: PERKIN-ELMER 21 (GRATING)
Instrument parameters: NaCl PRISM
Sampling: TRANSMISSION
Resolution: 2
Origin: SMITH KLINE & FRENCH LABS.
MICROMETERS	TRANSMITTANCE
2.013	0.932
2.04721	0.932
2.08143	0.928
2.11564	0.946
2.14986	0.945
2.18407	0.935
2.21829	0.926
2.2525	0.901
2.28672	0.898
2.32093	0.895
2.35515	0.891
2.38936	0.906
2.42358	0.892
2.45779	0.906
2.49201	0.909
2.52622	0.918
2.56044	0.901
2.59465	0.915
2.62887	0.912
2.66308	0.91
2.6973	0.906
2.73151	0.904
2.76573	0.885
2.79994	0.857
2.83416	0.837
2.86837	0.802
2.90259	0.798
2.9368	0.791
2.97102	0.813
3.00523	0.821
3.03945	0.821
3.07366	0.815
3.10788	0.8
3.14209	0.769
3.17631	0.731
3.21052	0.708
3.24473	0.651
3.27895	0.537
3.31316	0.403
3.34738	0.197
3.38159	0.087
3.41581	0.082
3.45002	0.117
3.48424	0.2
3.51845	0.1
3.55267	0.075
3.58688	0.062
3.6211	0.086
3.65531	0.084
3.68953	0.08
3.72374	0.078
3.75796	0.175
3.79217	0.247
3.82639	0.273
3.8606	0.336
3.89482	0.395
3.92903	0.539
3.96325	0.38
3.99746	0.184
4.03168	0.371
4.06589	0.491
4.10011	0.252
4.13432	0.47
4.16854	0.498
4.20275	0.6
4.23697	0.586
4.27118	0.651
4.3054	0.69
4.33961	0.773
4.37382	0.792
4.40804	0.804
4.44225	0.808
4.47647	0.83
4.51068	0.848
4.5449	0.857
4.57911	0.867
4.61333	0.769
4.64754	0.825
4.68176	0.87
4.71597	0.879
4.75019	0.859
4.7844	0.784
4.81862	0.851
4.85283	0.824
4.88705	0.837
4.92126	0.817
4.95548	0.843
4.98969	0.864
5.02391	0.879
5.05812	0.885
5.09234	0.82
5.12655	0.84
5.16077	0.878
5.19498	0.878
5.2292	0.874
5.26341	0.869
5.29763	0.881
5.33184	0.896
5.36606	0.903
5.40027	0.903
5.43449	0.901
5.4687	0.886
5.50292	0.895
5.53713	0.898
5.57134	0.892
5.60556	0.887
5.63977	0.897
5.67399	0.895
5.7082	0.879
5.74242	0.887
5.77663	0.884
5.81085	0.864
5.84506	0.865
5.87928	0.865
5.91349	0.873
5.94771	0.863
5.98192	0.863
6.01614	0.852
6.05035	0.836
6.08457	0.846
6.11878	0.843
6.153	0.843
6.18721	0.852
6.22143	0.86
6.25564	0.796
6.28986	0.642
6.32407	0.775
6.35829	0.842
6.3925	0.846
6.42672	0.846
6.46093	0.832
6.49515	0.837
6.52936	0.839
6.56358	0.821
6.59779	0.821
6.63201	0.808
6.66622	0.756
6.70044	0.64
6.73465	0.381
6.76886	0.235
6.80308	0.259
6.83729	0.258
6.87151	0.526
6.90572	0.465
6.93994	0.665
6.97415	0.751
7.00837	0.779
7.04258	0.793
7.0768	0.795
7.11101	0.76
7.14523	0.521
7.17944	0.554
7.21366	0.707
7.24787	0.656
7.28209	0.673
7.3163	0.714
7.35052	0.757
7.38473	0.765
7.41895	0.798
7.45316	0.796
7.48738	0.773
7.52159	0.83
7.55581	0.809
7.59002	0.69
7.62424	0.763
7.65845	0.831
7.69267	0.85
7.72688	0.887
7.7611	0.864
7.79531	0.842
7.82953	0.759
7.86374	0.801
7.89795	0.807
7.93217	0.824
7.96638	0.867
8.0006	0.821
8.03481	0.86
8.06903	0.878
8.10324	0.878
8.13746	0.886
8.17167	0.881
8.20589	0.878
8.2401	0.876
8.27432	0.859
8.30853	0.867
8.34275	0.882
8.37696	0.884
8.41118	0.881
8.44539	0.87
8.47961	0.826
8.51382	0.789
8.54804	0.845
8.58225	0.834
8.61647	0.85
8.65068	0.865
8.6849	0.865
8.71911	0.863
8.75333	0.853
8.78754	0.798
8.82176	0.664
8.85597	0.748
8.89019	0.778
8.9244	0.668
8.95862	0.658
8.99283	0.778
9.02705	0.83
9.06126	0.848
9.09547	0.832
9.12969	0.746
9.1639	0.773
9.19812	0.789
9.23233	0.771
9.26655	0.832
9.30076	0.841
9.33498	0.85
9.36919	0.839
9.40341	0.803
9.43762	0.731
9.47184	0.639
9.50605	0.639
9.54027	0.691
9.57448	0.771
9.6087	0.764
9.64291	0.64
9.67713	0.696
9.71134	0.762
9.74556	0.795
9.77977	0.808
9.81399	0.813
9.8482	0.817
9.88242	0.804
9.91663	0.76
9.95085	0.64
9.98506	0.59
10.0193	0.754
10.0535	0.786
10.0877	0.818
10.1219	0.823
10.1561	0.815
10.1904	0.778
10.2246	0.759
10.2588	0.775
10.293	0.807
10.3272	0.812
10.3614	0.801
10.3956	0.718
10.4299	0.626
10.4641	0.678
10.4983	0.709
10.5325	0.647
10.5667	0.618
10.6009	0.767
10.6351	0.812
10.6694	0.83
10.7036	0.839
10.7378	0.821
10.772	0.798
10.8062	0.824
10.8404	0.859
10.8746	0.868
10.9089	0.87
10.9431	0.87
10.9773	0.856
11.0115	0.782
11.0457	0.66
11.0799	0.715
11.1142	0.801
11.1484	0.834
11.1826	0.848
11.2168	0.847
11.251	0.821
11.2852	0.82
11.3194	0.843
11.3537	0.868
11.3879	0.863
11.4221	0.841
11.4563	0.78
11.4905	0.817
11.5247	0.86
11.5589	0.88
11.5932	0.884
11.6274	0.886
11.6616	0.887
11.6958	0.887
11.73	0.887
11.7642	0.884
11.7984	0.801
11.8327	0.81
11.8669	0.858
11.9011	0.889
11.9353	0.898
11.9695	0.896
12.0037	0.886
12.038	0.88
12.0722	0.887
12.1064	0.891
12.1406	0.892
12.1748	0.9
12.209	0.902
12.2432	0.902
12.2775	0.902
12.3117	0.902
12.3459	0.903
12.3801	0.906
12.4143	0.908
12.4485	0.907
12.4827	0.907
12.517	0.9
12.5512	0.9
12.5854	0.895
12.6196	0.881
12.6538	0.875
12.688	0.873
12.7222	0.846
12.7565	0.785
12.7907	0.76
12.8249	0.806
12.8591	0.839
12.8933	0.873
12.9275	0.878
12.9618	0.889
12.996	0.895
13.0302	0.896
13.0644	0.901
13.0986	0.906
13.1328	0.907
13.167	0.907
13.2013	0.908
13.2355	0.909
13.2697	0.909
13.3039	0.909
13.3381	0.909
13.3723	0.909
13.4065	0.908
13.4408	0.908
13.475	0.908
13.5092	0.908
13.5434	0.904
13.5776	0.903
13.6118	0.908
13.6461	0.91
13.6803	0.909
13.7145	0.9
13.7487	0.902
13.7829	0.907
13.8171	0.908
13.8513	0.908
13.8856	0.908
13.9198	0.908
13.954	0.907
13.9882	0.904
14.0224	0.903
14.0566	0.904
14.0908	0.907
14.1251	0.909
14.1593	0.908
14.1935	0.906
14.2277	0.906
14.2619	0.907
14.2961	0.909
14.3303	0.909
14.3646	0.909
14.3988	0.908
14.433	0.908
14.4672	0.909
14.5014	0.909
14.5356	0.908
14.5699	0.907
14.6041	0.907
14.6383	0.907
14.6725	0.907
14.7067	0.909
14.7409	0.908
14.7751	0.904
14.8094	0.908
14.8436	0.908
14.8778	0.908
14.912	0.908
