Infrared Spectrum: 4-(n-HEPTYLSULFONYLMETHYL)-4-THIAZOLINE-2-THIONE
Formula: C11 H19 N O2 S3
CAS: 91356-11-5
State: SOLID (KBr PRESSING)
Melting point: 152-153 C
Class: COBLENTZ
Instrument: Not specified, most likely a prism, grating, or hybrid spectrometer.
Sampling: TRANSMISSION
Resolution: 4
Origin: EASTMAN KODAK COMPANY, RESEARCH LABORATORIES, ROCHESTER, N.Y.
MICROMETERS	TRANSMITTANCE
2.007	0.54
2.0469	0.543
2.08681	0.545
2.12671	0.548
2.16661	0.548
2.20651	0.551
2.24642	0.548
2.28632	0.554
2.32622	0.553
2.36613	0.559
2.40603	0.561
2.44593	0.569
2.48583	0.567
2.52574	0.572
2.56564	0.581
2.60554	0.582
2.64545	0.602
2.68535	0.592
2.72525	0.589
2.76515	0.563
2.80506	0.509
2.84496	0.471
2.88486	0.445
2.92477	0.445
2.96467	0.481
3.00457	0.495
3.04447	0.454
3.08438	0.322
3.12428	0.279
3.16418	0.409
3.20409	0.472
3.24399	0.51
3.28389	0.49
3.32379	0.528
3.3637	0.307
3.4036	0.284
3.4435	0.445
3.48341	0.36
3.52331	0.571
3.56321	0.59
3.60311	0.608
3.64302	0.612
3.68292	0.602
3.72282	0.612
3.76273	0.633
3.80263	0.641
3.84253	0.646
3.88243	0.648
3.92234	0.651
3.96224	0.649
4.00214	0.646
4.04205	0.654
4.08195	0.664
4.12185	0.662
4.16175	0.669
4.20166	0.672
4.24156	0.662
4.28146	0.659
4.32137	0.669
4.36127	0.684
4.40117	0.69
4.44107	0.692
4.48098	0.695
4.52088	0.697
4.56078	0.698
4.60069	0.7
4.64059	0.697
4.68049	0.7
4.72039	0.698
4.7603	0.708
4.8002	0.71
4.8401	0.708
4.88001	0.711
4.91991	0.713
4.95981	0.72
4.99971	0.723
5.03962	0.725
5.07952	0.723
5.11942	0.729
5.15933	0.731
5.19923	0.726
5.23913	0.738
5.27903	0.731
5.31894	0.741
5.35884	0.733
5.39874	0.744
5.43865	0.746
5.47855	0.744
5.51845	0.746
5.55835	0.739
5.59826	0.749
5.63816	0.747
5.67806	0.751
5.71796	0.739
5.75787	0.721
5.79777	0.731
5.83767	0.731
5.87758	0.731
5.91748	0.733
5.95738	0.729
5.99728	0.726
6.03719	0.718
6.07709	0.708
6.11699	0.69
6.1569	0.689
6.1968	0.69
6.2367	0.679
6.2766	0.494
6.31651	0.595
6.35641	0.692
6.39631	0.726
6.43622	0.721
6.47612	0.723
6.51602	0.718
6.55592	0.715
6.59583	0.71
6.63573	0.708
6.67563	0.702
6.71554	0.671
6.75544	0.603
6.79534	0.315
6.83524	0.166
6.87515	0.399
6.91505	0.561
6.95495	0.613
6.99486	0.667
7.03476	0.689
7.07466	0.594
7.11456	0.549
7.15447	0.651
7.19437	0.68
7.23427	0.703
7.27418	0.703
7.31408	0.702
7.35398	0.708
7.39388	0.684
7.43379	0.53
7.47369	0.315
7.51359	0.479
7.5535	0.559
7.5934	0.358
7.6333	0.363
7.6732	0.468
7.71311	0.472
7.75301	0.43
7.79291	0.173
7.83282	0.472
7.87272	0.348
7.91262	0.36
7.95252	0.412
7.99243	0.472
8.03233	0.379
8.07223	0.599
8.11214	0.649
8.15204	0.669
8.19194	0.726
8.23184	0.729
8.27175	0.747
8.31165	0.757
8.35155	0.761
8.39146	0.761
8.43136	0.743
8.47126	0.725
8.51116	0.729
8.55107	0.743
8.59097	0.747
8.63087	0.736
8.67078	0.728
8.71068	0.698
8.75058	0.44
8.79048	0.328
8.83039	0.232
8.87029	0.23
8.91019	0.445
8.9501	0.522
8.99	0.499
9.0299	0.63
9.0698	0.71
9.10971	0.749
9.14961	0.759
9.18951	0.759
9.22942	0.749
9.26932	0.744
9.30922	0.731
9.34912	0.644
9.38903	0.459
9.42893	0.189
9.46883	0.36
9.50874	0.541
9.54864	0.639
9.58854	0.698
9.62844	0.718
9.66835	0.725
9.70825	0.7
9.74815	0.728
9.78806	0.738
9.82796	0.752
9.86786	0.77
9.90776	0.788
9.94767	0.797
9.98757	0.8
10.0275	0.8
10.0674	0.797
10.1073	0.797
10.1472	0.798
10.1871	0.8
10.227	0.8
10.2669	0.8
10.3068	0.79
10.3467	0.77
10.3866	0.695
10.4265	0.49
10.4664	0.387
10.5063	0.337
10.5462	0.45
10.5861	0.607
10.626	0.743
10.6659	0.77
10.7058	0.79
10.7457	0.801
10.7856	0.8
10.8255	0.81
10.8654	0.815
10.9053	0.821
10.9452	0.826
10.9851	0.798
11.025	0.749
11.0649	0.801
11.1048	0.831
11.1448	0.826
11.1847	0.77
11.2246	0.711
11.2645	0.779
11.3044	0.828
11.3443	0.847
11.3842	0.852
11.4241	0.859
11.464	0.867
11.5039	0.86
11.5438	0.869
11.5837	0.869
11.6236	0.867
11.6635	0.864
11.7034	0.867
11.7433	0.869
11.7832	0.862
11.8231	0.851
11.863	0.847
11.9029	0.779
11.9428	0.68
11.9827	0.759
12.0226	0.831
12.0625	0.837
12.1024	0.839
12.1423	0.837
12.1822	0.837
12.2221	0.833
12.262	0.837
12.3019	0.833
12.3418	0.829
12.3817	0.824
12.4216	0.81
12.4615	0.797
12.5014	0.77
12.5414	0.728
12.5813	0.671
12.6212	0.584
12.6611	0.561
12.701	0.621
12.7409	0.674
12.7808	0.698
12.8207	0.718
12.8606	0.718
12.9005	0.689
12.9404	0.628
12.9803	0.545
13.0202	0.454
13.0601	0.43
13.1	0.453
13.1399	0.499
13.1798	0.577
13.2197	0.653
13.2596	0.7
13.2995	0.715
13.3394	0.718
13.3793	0.718
13.4192	0.72
13.4591	0.728
13.499	0.731
13.5389	0.736
13.5788	0.747
13.6187	0.746
13.6586	0.728
13.6985	0.679
13.7384	0.649
13.7783	0.689
13.8182	0.744
13.8581	0.769
13.898	0.797
13.938	0.828
13.9779	0.841
14.0178	0.852
14.0577	0.86
14.0976	0.864
14.1375	0.86
14.1774	0.859
14.2173	0.855
14.2572	0.839
14.2971	0.828
14.337	0.811
14.3769	0.788
14.4168	0.736
14.4567	0.689
14.4966	0.698
14.5365	0.739
14.5764	0.779
14.6163	0.811
14.6562	0.836
14.6961	0.847
14.736	0.855
14.7759	0.862
14.8158	0.865
14.8557	0.878
14.8956	0.877
14.9355	0.865
14.9754	0.841
15.0153	0.824
15.0552	0.777
15.0951	0.669
15.135	0.536
15.1749	0.476
15.2148	0.51
15.2547	0.579
15.2946	0.657
15.3346	0.726
15.3745	0.769
15.4144	0.797
15.4543	0.805
15.4942	0.806
15.5341	0.816
15.574	0.818
15.6139	0.816
15.6538	0.813
15.6937	0.808
15.7336	0.808
15.7735	0.801
15.8134	0.797
15.8533	0.797
15.8932	0.795
15.9331	0.788
15.973	0.788
16.0129	0.785
