Infrared Spectrum: Methyl 4-chloro-3-methylbenzoate
Formula: C 9 H 9 Cl O 2
CAS: 91367-05-4
State: gas
Origin: EPA-IR VAPOR PHASE LIBRARY
1/CM	ABSORBANCE
549.9	0.0025031
559.547	0.00572
569.193	0.01064
578.84	0.00604
588.486	0.0028734
598.133	0.001592
607.779	0.001417
617.426	0.001621
627.072	0.001627
636.719	0.001485
646.365	0.001369
656.012	0.001269
665.658	0.001299
675.305	0.001556
684.951	0.0031131
694.598	0.00702
704.245	0.00419
713.891	0.002084
723.538	0.001955
733.184	0.0024833
742.831	0.00513
752.477	0.01632
762.124	0.03545
771.77	0.02469
781.417	0.01474
791.063	0.00889
800.71	0.00349
810.356	0.00334
820.003	0.0057
829.649	0.01014
839.296	0.00877
848.943	0.00474
858.589	0.00391
868.236	0.00545
877.882	0.00792
887.529	0.00882
897.175	0.0099
906.822	0.00846
916.468	0.00469
926.115	0.0026761
935.761	0.0021245
945.408	0.00230921
955.054	0.0028013
964.701	0.00387
974.347	0.00634
983.994	0.00878
993.64	0.01061
1003.29	0.01602
1012.93	0.01518
1022.58	0.01141
1032.23	0.01813
1041.87	0.03824
1051.52	0.05549
1061.17	0.0437
1070.81	0.0251
1080.46	0.02449
1090.11	0.0415
1099.75	0.07997
1109.4	0.10692
1119.05	0.07535
1128.69	0.03968
1138.34	0.02079
1147.99	0.01232
1157.63	0.01085
1167.28	0.01254
1176.92	0.02262
1186.57	0.0594
1196.22	0.09337
1205.86	0.06233
1215.51	0.02297
1225.16	0.0174
1234.8	0.03447
1244.45	0.10992
1254.1	0.17815
1263.74	0.12484
1273.39	0.06369
1283.04	0.0907
1292.68	0.16592
1302.33	0.11426
1311.98	0.0439
1321.62	0.0193
1331.27	0.01067
1340.92	0.00817
1350.56	0.00753
1360.21	0.00721
1369.86	0.00736
1379.5	0.00993
1389.15	0.01392
1398.79	0.01841
1408.44	0.01786
1418.09	0.01305
1427.73	0.01904
1437.38	0.04799
1447.03	0.03554
1456.67	0.0202
1466.32	0.02024
1475.97	0.02407
1485.61	0.01795
1495.26	0.00893
1504.91	0.00647
1514.55	0.00591
1524.2	0.00596
1533.85	0.0058
1543.49	0.00569
1553.14	0.00697
1562.79	0.01075
1572.43	0.01636
1582.08	0.01769
1591.73	0.01798
1601.37	0.02203
1611.02	0.01705
1620.67	0.00819
1630.31	0.00525
1639.96	0.00445
1649.6	0.00487
1659.25	0.00579
1668.9	0.00623
1678.54	0.00598
1688.19	0.00704
1697.84	0.01092
1707.48	0.01295
1717.13	0.01651
1726.78	0.0409
1736.42	0.12918
1746.07	0.1872
1755.72	0.09035
1765.36	0.02774
1775.01	0.01433
1784.66	0.01312
1794.3	0.01118
1803.95	0.00694
1813.6	0.00472
1823.24	0.00354
1832.89	0.0027062
1842.54	0.0026051
1852.18	0.0027061
1861.83	0.0028231
1871.47	0.0031075
1881.12	0.0030559
1890.77	0.0031392
1900.41	0.00339
1910.06	0.00334
1919.71	0.0028331
1929.35	0.002405
1939	0.00224303
1948.65	0.00230912
1958.29	0.0024228
1967.94	0.0025312
1977.59	0.0027394
1987.23	0.0028657
1996.88	0.0025813
2006.53	0.00225492
2016.17	0.002071
2025.82	0.002007
2035.47	0.002047
2045.11	0.002119
2054.76	0.0021245
2064.41	0.00230172
2074.05	0.0026645
2083.7	0.0028125
2093.35	0.0025191
2102.99	0.00227805
2112.64	0.002104
2122.28	0.002155
2131.93	0.0021767
2141.58	0.001985
2151.22	0.001935
2160.87	0.002013
2170.52	0.001983
2180.16	0.001999
2189.81	0.00189
2199.46	0.001802
2209.1	0.001652
2218.75	0.001585
2228.4	0.001525
2238.04	0.001523
2247.69	0.001625
2257.34	0.0016
2266.98	0.001639
2276.63	0.001706
2286.28	0.001731
2295.92	0.001799
2305.57	0.001708
2315.22	0.001731
2324.86	0.00173
2334.51	0.001728
2344.16	0.001746
2353.8	0.001741
2363.45	0.001846
2373.09	0.001824
2382.74	0.001791
2392.39	0.001741
2402.03	0.001771
2411.68	0.001782
2421.33	0.001718
2430.97	0.001684
2440.62	0.001653
2450.27	0.001681
2459.91	0.001663
2469.56	0.001693
2479.21	0.001713
2488.85	0.001748
2498.5	0.001681
2508.15	0.00168
2517.79	0.001729
2527.44	0.001829
2537.09	0.001934
2546.73	0.002114
2556.38	0.0021684
2566.03	0.0021948
2575.67	0.0022352
2585.32	0.002002
2594.96	0.001857
2604.61	0.001746
2614.26	0.001602
2623.9	0.001615
2633.55	0.001702
2643.2	0.001673
2652.84	0.001681
2662.49	0.001691
2672.14	0.001499
2681.78	0.001461
2691.43	0.001433
2701.08	0.00142
2710.72	0.001477
2720.37	0.001429
2730.02	0.001533
2739.66	0.001627
2749.31	0.001731
2758.96	0.001566
2768.6	0.001423
2778.25	0.001546
2787.9	0.00154
2797.54	0.001562
2807.19	0.001705
2816.84	0.002025
2826.48	0.0027174
2836.13	0.00393
2845.77	0.00664
2855.42	0.0079
2865.07	0.00586
2874.71	0.00566
2884.36	0.00605
2894.01	0.0069
2903.65	0.00806
2913.3	0.00938
2922.95	0.011
2932.59	0.01388
2942.24	0.01653
2951.89	0.02459
2961.53	0.04027
2971.18	0.02229
2980.83	0.01209
2990.47	0.01228
3000.12	0.0123
3009.77	0.01014
3019.41	0.00864
3029.06	0.00843
3038.71	0.00745
3048.35	0.00595
3058	0.00515
3067.64	0.00479
3077.29	0.00437
3086.94	0.00458
3096.58	0.00411
3106.23	0.0030932
3115.88	0.0021887
3125.52	0.00168
3135.17	0.00154
3144.82	0.0012
3154.46	0.0011
3164.11	0.00109
3173.76	0.0008
3183.4	0.00071
3193.05	0.0006
3202.7	0.00047
3212.34	0.00032
3221.99	0.00039
3231.64	0.0003
3241.28	0.00025
3250.93	0.00049
3260.58	0.00019
3270.22	0.00021
3279.87	0.00023
3289.52	9e-05
3299.16	4e-05
3308.81	0.00029
3318.45	0.00056
3328.1	0.00034
3337.75	0.00037
3347.39	0.00034
3357.04	0.00024
3366.69	0.00033
3376.33	0.00035
3385.98	0.00026
3395.63	0.00037
3405.27	0.00029
3414.92	0.00049
3424.57	0.00036
3434.21	0.0004
3443.86	0.00055
3453.51	0.00106
3463.15	0.001702
3472.8	0.001991
3482.45	0.00142
3492.09	0.0009
3501.74	0.00077
3511.39	0.00078
3521.03	0.00064
3530.68	0.00049
3540.33	0.00056
3549.97	0.00056
3559.62	0.00056
3569.26	0.00077
3578.91	0.00067
3588.56	0.00062
3598.2	0.0007
3607.85	0.00058
3617.5	0.00072
3627.14	0.00079
3636.79	0.00075
3646.44	0.00078
3656.08	0.00085
3665.73	0.00079
3675.38	0.00083
3685.02	0.0008
3694.67	0.00085
3704.32	0.00094
3713.96	0.00093
3723.61	0.00098
3733.26	0.00094
3742.9	0.00104
3752.55	0.0011
3762.2	0.00114
3771.84	0.00105
3781.49	0.00108
3791.13	0.00109
3800.78	0.0009
3810.43	0.00106
3820.07	0.00109
3829.72	0.00114
3839.37	0.00108
3849.01	0.00114
3858.66	0.0011
3868.31	0.00119
3877.95	0.00099
3887.6	0.00117
3897.25	0.00113
3906.89	0.0011
3916.54	0.001257
3926.19	0.001275
3935.83	0.001294
3945.48	0.001456
3955.13	0.001333
3964.77	0.001496
3974.42	0.00139
3984.07	0.001375
3993.71	0.001365
