Infrared Spectrum: (2-PHENYLETHYL)PYRAZINE
Formula: C12 H12 N2
CAS: 91391-83-2
State: LIQUID
Class: COBLENTZ
Instrument: Not specified, most likely a prism, grating, or hybrid spectrometer.
Sampling: TRANSMISSION
Path length: 0.0015 CM
Resolution: 4
Origin: WYANDOTTE CHEMICALS CORP., WYANDOTTE, MICHIGAN, USA
MICROMETERS	TRANSMITTANCE
2.02	0.962
2.06086	0.936
2.10172	0.929
2.14258	0.943
2.18343	0.936
2.22429	0.923
2.26515	0.917
2.30601	0.916
2.34687	0.914
2.38773	0.863
2.42858	0.87
2.46944	0.899
2.5103	0.899
2.55116	0.9
2.59202	0.914
2.63288	0.917
2.67374	0.921
2.71459	0.887
2.75545	0.882
2.79631	0.888
2.83717	0.859
2.87803	0.846
2.91889	0.823
2.95975	0.815
3.0006	0.823
3.04146	0.818
3.08232	0.835
3.12318	0.841
3.16404	0.82
3.2049	0.789
3.24575	0.461
3.28661	0.179
3.32747	0.377
3.36833	0.418
3.40919	0.271
3.45005	0.314
3.49091	0.278
3.53176	0.263
3.57262	0.615
3.61348	0.721
3.65434	0.813
3.6952	0.832
3.73606	0.88
3.77691	0.894
3.81777	0.895
3.85863	0.897
3.89949	0.917
3.94035	0.921
3.98121	0.928
4.02207	0.929
4.06292	0.924
4.10378	0.919
4.14464	0.917
4.1855	0.919
4.22636	0.921
4.26722	0.909
4.30807	0.933
4.34893	0.931
4.38979	0.938
4.43065	0.933
4.47151	0.931
4.51237	0.928
4.55323	0.933
4.59408	0.936
4.63494	0.933
4.6758	0.936
4.71666	0.941
4.75752	0.935
4.79838	0.929
4.83924	0.923
4.88009	0.926
4.92095	0.921
4.96181	0.923
5.00267	0.921
5.04353	0.914
5.08439	0.882
5.12524	0.829
5.1661	0.747
5.20696	0.793
5.24782	0.878
5.28868	0.858
5.32954	0.81
5.3704	0.776
5.41125	0.818
5.45211	0.87
5.49297	0.842
5.53383	0.765
5.57469	0.776
5.61555	0.858
5.6564	0.841
5.69726	0.837
5.73812	0.835
5.77898	0.852
5.81984	0.822
5.8607	0.805
5.90156	0.726
5.94241	0.724
5.98327	0.757
6.02413	0.772
6.06499	0.728
6.10585	0.779
6.14671	0.735
6.18756	0.497
6.22842	0.552
6.26928	0.516
6.31014	0.615
6.351	0.736
6.39186	0.745
6.43272	0.656
6.47357	0.425
6.51443	0.273
6.55529	0.5
6.59615	0.569
6.63701	0.205
6.67787	0.189
6.71873	0.35
6.75958	0.23
6.80044	0.285
6.8413	0.085
6.88216	0.141
6.92302	0.218
6.96388	0.2
7.00473	0.223
7.04559	0.194
7.08645	0.095
7.12731	0.095
7.16817	0.259
7.20903	0.302
7.24989	0.347
7.29074	0.365
7.3316	0.17
7.37246	0.266
7.41332	0.488
7.45418	0.552
7.49504	0.555
7.53589	0.533
7.57675	0.485
7.61761	0.418
7.65847	0.456
7.69933	0.526
7.74019	0.562
7.78105	0.569
7.8219	0.543
7.86276	0.449
7.90362	0.408
7.94448	0.364
7.98534	0.311
8.0262	0.396
8.06705	0.442
8.10791	0.452
8.14877	0.468
8.18963	0.494
8.23049	0.355
8.27135	0.307
8.31221	0.335
8.35306	0.396
8.39392	0.468
8.43478	0.42
8.47564	0.42
8.5165	0.393
8.55736	0.364
8.59822	0.312
8.63907	0.288
8.67993	0.367
8.72079	0.418
8.76165	0.405
8.80251	0.341
8.84337	0.239
8.88422	0.172
8.92508	0.148
8.96594	0.112
9.0068	0.104
9.04766	0.088
9.08852	0.071
9.12938	0.071
9.17023	0.08
9.21109	0.104
9.25195	0.1
9.29281	0.059
9.33367	0.061
9.37453	0.117
9.41538	0.157
9.45624	0.203
9.4971	0.382
9.53796	0.475
9.57882	0.502
9.61968	0.435
9.66054	0.305
9.70139	0.145
9.74225	0.128
9.78311	0.124
9.82397	0.095
9.86483	0.206
9.90569	0.311
9.94655	0.348
9.9874	0.369
10.0283	0.427
10.0691	0.444
10.11	0.456
10.1508	0.499
10.1917	0.473
10.2326	0.521
10.2734	0.538
10.3143	0.543
10.3551	0.528
10.396	0.521
10.4368	0.521
10.4777	0.521
10.5186	0.502
10.5594	0.487
10.6003	0.49
10.6411	0.514
10.682	0.552
10.7229	0.588
10.7637	0.603
10.8046	0.6
10.8454	0.596
10.8863	0.591
10.9271	0.565
10.968	0.499
11.0089	0.451
11.0497	0.447
11.0906	0.466
11.1314	0.536
11.1723	0.594
11.2132	0.639
11.254	0.659
11.2949	0.678
11.3357	0.69
11.3766	0.664
11.4175	0.646
11.4583	0.623
11.4992	0.622
11.54	0.641
11.5809	0.656
11.6217	0.664
11.6626	0.661
11.7035	0.647
11.7443	0.63
11.7852	0.61
11.826	0.574
11.8669	0.531
11.9078	0.505
11.9486	0.459
11.9895	0.396
12.0303	0.36
12.0712	0.425
12.112	0.499
12.1529	0.572
12.1938	0.596
12.2346	0.601
12.2755	0.598
12.3163	0.601
12.3572	0.623
12.3981	0.615
12.4389	0.6
12.4798	0.601
12.5206	0.615
12.5615	0.642
12.6023	0.671
12.6432	0.683
12.6841	0.69
12.7249	0.683
12.7658	0.666
12.8066	0.63
12.8475	0.596
12.8884	0.555
12.9292	0.521
12.9701	0.494
13.0109	0.423
13.0518	0.391
13.0926	0.36
13.1335	0.295
13.1744	0.205
13.2152	0.15
13.2561	0.109
13.2969	0.083
13.3378	0.076
13.3787	0.076
13.4195	0.078
13.4604	0.082
13.5012	0.075
13.5421	0.085
13.5829	0.078
13.6238	0.087
13.6647	0.087
13.7055	0.109
13.7464	0.133
13.7872	0.17
13.8281	0.205
13.869	0.232
13.9098	0.249
13.9507	0.249
13.9915	0.222
14.0324	0.203
14.0733	0.2
14.1141	0.196
14.155	0.196
14.1958	0.181
14.2367	0.152
14.2775	0.124
14.3184	0.112
14.3593	0.117
14.4001	0.116
14.441	0.128
14.4818	0.145
14.5227	0.196
14.5636	0.295
14.6044	0.396
14.6453	0.482
14.6861	0.555
14.727	0.591
14.7678	0.615
14.8087	0.627
14.8496	0.637
14.8904	0.642
14.9313	0.647
14.9721	0.663
15.013	0.658
15.0539	0.652
15.0947	0.654
15.1356	0.69
15.1764	0.712
15.2173	0.716
15.2581	0.709
15.299	0.716
15.3399	0.702
15.3807	0.707
15.4216	0.707
15.4624	0.7
15.5033	0.69
15.5442	0.68
15.585	0.671
15.6259	0.658
15.6667	0.649
15.7076	0.639
15.7484	0.62
15.7893	0.603
15.8302	0.598
15.871	0.589
15.9119	0.581
15.9527	0.591
15.9936	0.581
