Infrared Spectrum: Formamide, N-(4-amino-6-chloropyrimidin-5-yl)-N-benzyl-
Formula: C12 H11 Cl N4 O
CAS: 91398-41-3
State: SOLID (0.8 mg / 650 mg KBr DISC)
Class: COBLENTZ III
Instrument: PERKIN-ELMER 221 (GRATING)
Instrument parameters: FILTER AT 2490, 980 CM^-^1. GRATING 4000-1428 CM^-^1, NaCl PRISM 1428-650 CM^-^1
Sampling: TRANSMISSION
Resolution: 2
Origin: SOUTHERN RESEARCH INSTITUTE
1/CM	TRANSMITTANCE
619.04	0.7046
627.085	0.7078
635.13	0.7319
643.175	0.7529
651.221	0.7531
659.266	0.75
667.311	0.744
675.356	0.7348
683.401	0.7164
691.446	0.4125
699.492	0.4316
707.537	0.771
715.582	0.7437
723.627	0.5832
731.672	0.2978
739.717	0.6107
747.763	0.6424
755.808	0.356
763.853	0.5106
771.898	0.821
779.943	0.7932
787.988	0.4191
796.033	0.5467
804.079	0.7727
812.124	0.7394
820.169	0.6674
828.214	0.4162
836.259	0.8366
844.304	0.8334
852.35	0.8207
860.395	0.8107
868.44	0.8026
876.485	0.7953
884.53	0.7863
892.575	0.7648
900.621	0.7553
908.666	0.7243
916.711	0.6865
924.756	0.6159
932.801	0.6571
940.846	0.5554
948.891	0.3213
956.937	0.5001
964.982	0.6738
973.027	0.6209
981.072	0.2787
989.117	0.4682
997.162	0.7052
1005.21	0.7516
1013.25	0.7296
1021.3	0.6856
1029.34	0.6628
1037.39	0.6451
1045.43	0.607
1053.48	0.6246
1061.52	0.6421
1069.57	0.6374
1077.61	0.4537
1085.66	0.693
1093.7	0.6952
1101.75	0.6827
1109.79	0.6726
1117.84	0.6711
1125.88	0.6623
1133.93	0.6531
1141.98	0.6495
1150.02	0.6351
1158.07	0.6012
1166.11	0.5338
1174.16	0.3706
1182.2	0.4111
1190.25	0.5792
1198.29	0.5273
1206.34	0.4448
1214.38	0.5036
1222.43	0.5835
1230.47	0.525
1238.52	0.4263
1246.56	0.3043
1254.61	0.2617
1262.65	0.3535
1270.7	0.6317
1278.74	0.6525
1286.79	0.6282
1294.83	0.5743
1302.88	0.598
1310.92	0.5304
1318.97	0.3581
1327.01	0.3643
1335.06	0.3638
1343.1	0.4588
1351.15	0.214
1359.19	0.1695
1367.24	0.2863
1375.28	0.4331
1383.33	0.5817
1391.38	0.4081
1399.42	0.3935
1407.47	0.5325
1415.51	0.2264
1423.56	0.2387
1431.6	0.468
1439.65	0.6435
1447.69	0.6072
1455.74	0.4584
1463.78	0.5885
1471.83	0.4191
1479.87	0.2273
1487.92	0.4163
1495.96	0.5418
1504.01	0.6376
1512.05	0.553
1520.1	0.4683
1528.14	0.368
1536.19	0.2426
1544.23	0.1554
1552.28	0.2609
1560.32	0.1364
1568.37	0.2173
1576.41	0.4945
1584.46	0.5273
1592.5	0.5451
1600.55	0.422
1608.59	0.343
1616.64	0.2954
1624.68	0.197
1632.73	0.1021
1640.77	0.0676
1648.82	0.0899
1656.87	0.0054
1664.91	0.0078
1672.96	0.106
1681	0.2634
1689.05	0.2867
1697.09	0.3508
1705.14	0.5862
1713.18	0.6851
1721.23	0.7546
1729.27	0.7886
1737.32	0.8155
1745.36	0.8394
1753.41	0.8524
1761.45	0.8584
1769.5	0.8606
1777.54	0.8683
1785.59	0.8863
1793.63	0.8975
1801.68	0.8978
1809.72	0.8944
1817.77	0.8895
1825.81	0.8915
1833.86	0.8963
1841.9	0.8971
1849.95	0.8958
1857.99	0.8927
1866.04	0.887
1874.08	0.8797
1882.13	0.8703
1890.17	0.8587
1898.22	0.8611
1906.27	0.8651
1914.31	0.8658
1922.36	0.8658
1930.4	0.86
1938.45	0.8447
1946.49	0.8255
1954.54	0.8205
1962.58	0.8223
1970.63	0.8403
1978.67	0.8476
1986.72	0.845
1994.76	0.8406
2002.81	0.8365
2010.85	0.8328
2018.9	0.829
2026.94	0.8263
2034.99	0.824
2043.03	0.8223
2051.08	0.8207
2059.12	0.8188
2067.17	0.8173
2075.21	0.816
2083.26	0.8145
2091.3	0.8126
2099.35	0.8107
2107.39	0.8086
2115.44	0.8063
2123.48	0.8023
2131.53	0.7993
2139.57	0.7977
2147.62	0.7966
2155.67	0.7955
2163.71	0.7945
2171.76	0.7941
2179.8	0.7939
2187.85	0.7936
2195.89	0.7927
2203.94	0.7919
2211.98	0.7906
2220.03	0.7887
2228.07	0.7866
2236.12	0.7838
2244.16	0.7827
2252.21	0.784
2260.25	0.7861
2268.3	0.7876
2276.34	0.7832
2284.39	0.7754
2292.43	0.7695
2300.48	0.7644
2308.52	0.76
2316.57	0.7554
2324.61	0.751
2332.66	0.747
2340.7	0.7447
2348.75	0.7435
2356.79	0.7434
2364.84	0.7458
2372.88	0.7483
2380.93	0.7492
2388.97	0.7481
2397.02	0.7438
2405.06	0.7377
2413.11	0.7356
2421.16	0.7364
2429.2	0.7381
2437.25	0.7409
2445.29	0.7413
2453.34	0.7411
2461.38	0.7411
2469.43	0.7416
2477.47	0.7449
2485.52	0.7408
2493.56	0.7303
2501.61	0.7273
2509.65	0.7259
2517.7	0.7249
2525.74	0.7241
2533.79	0.7231
2541.83	0.7221
2549.88	0.7205
2557.92	0.7191
2565.97	0.7178
2574.01	0.7168
2582.06	0.7163
2590.1	0.7156
2598.15	0.7146
2606.19	0.714
2614.24	0.7126
2622.28	0.7045
2630.33	0.6925
2638.37	0.6898
2646.42	0.6889
2654.46	0.6879
2662.51	0.6873
2670.56	0.6875
2678.6	0.6879
2686.65	0.6885
2694.69	0.6891
2702.74	0.6892
2710.78	0.689
2718.83	0.6895
2726.87	0.6889
2734.92	0.6863
2742.96	0.6847
2751.01	0.6852
2759.05	0.6853
2767.1	0.6858
2775.14	0.6829
2783.19	0.6776
2791.23	0.6729
2799.28	0.6789
2807.32	0.6769
2815.37	0.6684
2823.41	0.6641
2831.46	0.6577
2839.5	0.6388
2847.55	0.6323
2855.59	0.6198
2863.64	0.5612
2871.68	0.6069
2879.73	0.6386
2887.77	0.6447
2895.82	0.6433
2903.86	0.638
2911.91	0.6262
2919.95	0.6214
2928	0.6189
2936.05	0.6166
2944.09	0.604
2952.14	0.6032
2960.18	0.6157
2968.23	0.6218
2976.27	0.6188
2984.32	0.6148
2992.36	0.6094
3000.41	0.6042
3008.45	0.6037
3016.5	0.5917
3024.54	0.5707
3032.59	0.5977
3040.63	0.5983
3048.68	0.5836
3056.72	0.5713
3064.77	0.5921
3072.81	0.5904
3080.86	0.5781
3088.9	0.5762
3096.95	0.566
3104.99	0.5536
3113.04	0.5508
3121.08	0.5464
3129.13	0.5409
3137.17	0.5322
3145.22	0.5208
3153.26	0.5029
3161.31	0.4722
3169.35	0.4377
3177.4	0.412
3185.45	0.3925
3193.49	0.3876
3201.54	0.3806
3209.58	0.3562
3217.63	0.3014
3225.67	0.2595
3233.72	0.2824
3241.76	0.3953
3249.81	0.4495
3257.85	0.4462
3265.9	0.4275
3273.94	0.3858
3281.99	0.3423
3290.03	0.313
3298.08	0.281
3306.12	0.2466
3314.17	0.2103
3322.21	0.1943
3330.26	0.198
3338.3	0.2431
3346.35	0.308
3354.39	0.3442
3362.44	0.3484
3370.48	0.3383
3378.53	0.2997
3386.57	0.2948
3394.62	0.2676
3402.66	0.2244
3410.71	0.2139
3418.75	0.2226
3426.8	0.2544
3434.85	0.3104
3442.89	0.3719
3450.94	0.4174
3458.98	0.4633
3467.03	0.4829
3475.07	0.4911
3483.12	0.4917
3491.16	0.4944
3499.21	0.5375
3507.25	0.564
3515.3	0.5744
3523.34	0.5814
3531.39	0.5866
3539.43	0.5912
3547.48	0.594
3555.52	0.5984
3563.57	0.6045
3571.61	0.6137
3579.66	0.6219
3587.7	0.6297
3595.75	0.6361
3603.79	0.6426
3611.84	0.6495
3619.88	0.6563
3627.93	0.6629
3635.97	0.6707
3644.02	0.6788
3652.06	0.687
3660.11	0.6907
3668.15	0.6915
3676.2	0.6919
3684.24	0.6919
3692.29	0.6916
3700.34	0.6909
3708.38	0.6895
3716.43	0.6873
3724.47	0.6838
3732.52	0.6801
3740.56	0.6767
3748.61	0.6737
3756.65	0.672
3764.7	0.6706
3772.74	0.67
3780.79	0.6691
3788.83	0.668
3796.88	0.6666
3804.92	0.6657
3812.97	0.665
