Infrared Spectrum: 9H-Purine, 9-benzyl-6,8-dichloro-
Formula: C12 H8 Cl2 N4
CAS: 91395-18-5
State: SOLID (0.9 mg / 650 mg KBr DISC)
Class: COBLENTZ III
Instrument: PERKIN-ELMER 221 (GRATING)
Instrument parameters: FILTER AT 2490, 980 CM^-^1. GRATING 4000-1428 CM^-^1, NaCl PRISM 1428-650 CM^-^1
Sampling: TRANSMISSION
Resolution: 2
Origin: SOUTHERN RESEARCH INSTITUTE
1/CM	TRANSMITTANCE
611	0.8443
619.021	0.8647
627.043	0.8342
635.064	0.8228
643.086	0.9715
651.107	0.9312
659.129	0.8894
667.15	0.8259
675.172	0.5129
683.193	0.8242
691.215	0.6497
699.236	0.8345
707.258	0.7259
715.279	0.6348
723.301	0.7383
731.322	0.4676
739.344	0.4649
747.365	0.8514
755.387	0.94
763.408	0.9325
771.43	0.8949
779.451	0.8639
787.473	0.7298
795.494	0.7338
803.516	0.8939
811.537	0.8919
819.559	0.8877
827.58	0.8796
835.602	0.8656
843.623	0.8412
851.645	0.809
859.666	0.613
867.688	0.6414
875.709	0.8489
883.731	0.8227
891.752	0.695
899.774	0.8622
907.795	0.8354
915.817	0.8052
923.838	0.7634
931.86	0.5805
939.881	0.3771
947.903	0.8798
955.924	0.8873
963.946	0.8563
971.967	0.8258
979.989	0.8476
988.01	0.7822
996.032	0.7357
1004.05	0.6467
1012.07	0.4972
1020.1	0.8145
1028.12	0.7138
1036.14	0.8354
1044.16	0.8244
1052.18	0.8119
1060.2	0.7895
1068.23	0.7402
1076.25	0.7527
1084.27	0.7747
1092.29	0.7605
1100.31	0.7283
1108.33	0.7212
1116.35	0.68
1124.38	0.6433
1132.4	0.5928
1140.42	0.3654
1148.44	0.4076
1156.46	0.6777
1164.48	0.69
1172.5	0.7135
1180.53	0.6525
1188.55	0.5218
1196.57	0.2977
1204.59	0.7168
1212.61	0.7789
1220.63	0.7193
1228.66	0.5267
1236.68	0.3342
1244.7	0.3948
1252.72	0.707
1260.74	0.6613
1268.76	0.7377
1276.78	0.7387
1284.81	0.7261
1292.83	0.6688
1300.85	0.5968
1308.87	0.5471
1316.89	0.442
1324.91	0.2927
1332.93	0.3323
1340.96	0.5061
1348.98	0.517
1357	0.7944
1365.02	0.6925
1373.04	0.5408
1381.06	0.6936
1389.09	0.6815
1397.11	0.6588
1405.13	0.5788
1413.15	0.5922
1421.17	0.501
1429.19	0.4133
1437.21	0.2765
1445.24	0.2987
1453.26	0.4931
1461.28	0.3394
1469.3	0.3889
1477.32	0.5511
1485.34	0.8334
1493.36	0.6145
1501.39	0.8354
1509.41	0.8207
1517.43	0.7446
1525.45	0.6948
1533.47	0.6083
1541.49	0.43
1549.52	0.3062
1557.54	0.1531
1565.56	0.243
1573.58	0.3529
1581.6	0.3308
1589.62	0.3337
1597.64	0.5355
1605.67	0.8006
1613.69	0.8605
1621.71	0.9041
1629.73	0.9064
1637.75	0.9126
1645.77	0.9096
1653.79	0.9116
1661.82	0.9144
1669.84	0.9131
1677.86	0.911
1685.88	0.9063
1693.9	0.9008
1701.92	0.8975
1709.95	0.8943
1717.97	0.8909
1725.99	0.8872
1734.01	0.8847
1742.03	0.8835
1750.05	0.8873
1758.07	0.8859
1766.1	0.8832
1774.12	0.8754
1782.14	0.8687
1790.16	0.866
1798.18	0.8639
1806.2	0.8619
1814.22	0.8594
1822.25	0.8569
1830.27	0.8545
1838.29	0.852
1846.31	0.8484
1854.33	0.8446
1862.35	0.8408
1870.38	0.8388
1878.4	0.838
1886.42	0.8378
1894.44	0.8367
1902.46	0.8331
1910.48	0.8253
1918.5	0.8141
1926.53	0.8079
1934.55	0.8072
1942.57	0.8141
1950.59	0.8182
1958.61	0.8176
1966.63	0.8172
1974.65	0.8164
1982.68	0.8153
1990.7	0.815
1998.72	0.816
2006.74	0.8138
2014.76	0.8111
2022.78	0.8084
2030.81	0.8058
2038.83	0.8039
2046.85	0.8021
2054.87	0.8006
2062.89	0.7991
2070.91	0.7977
2078.93	0.7963
2086.96	0.795
2094.98	0.7937
2103	0.7923
2111.02	0.7908
2119.04	0.7892
2127.06	0.7876
2135.08	0.7852
2143.11	0.7827
2151.13	0.7802
2159.15	0.7786
2167.17	0.777
2175.19	0.7753
2183.21	0.7735
2191.24	0.7726
2199.26	0.7718
2207.28	0.7709
2215.3	0.7699
2223.32	0.7682
2231.34	0.7664
2239.36	0.7642
2247.39	0.7616
2255.41	0.7592
2263.43	0.757
2271.45	0.7538
2279.47	0.7502
2287.49	0.745
2295.51	0.7391
2303.54	0.7322
2311.56	0.7252
2319.58	0.7205
2327.6	0.7201
2335.62	0.7202
2343.64	0.7205
2351.67	0.7213
2359.69	0.7222
2367.71	0.7231
2375.73	0.7237
2383.75	0.7243
2391.77	0.7247
2399.79	0.7248
2407.82	0.7249
2415.84	0.725
2423.86	0.7237
2431.88	0.7222
2439.9	0.7207
2447.92	0.7185
2455.94	0.7159
2463.97	0.7134
2471.99	0.7109
2480.01	0.6989
2488.03	0.712
2496.05	0.7114
2504.07	0.7092
2512.1	0.708
2520.12	0.7064
2528.14	0.7059
2536.16	0.705
2544.18	0.7037
2552.2	0.7022
2560.22	0.7008
2568.25	0.6998
2576.27	0.6989
2584.29	0.6979
2592.31	0.6968
2600.33	0.6958
2608.35	0.6952
2616.37	0.695
2624.4	0.6949
2632.42	0.6936
2640.44	0.6919
2648.46	0.6907
2656.48	0.6901
2664.5	0.6895
2672.53	0.689
2680.55	0.6885
2688.57	0.6881
2696.59	0.6865
2704.61	0.6848
2712.63	0.6831
2720.65	0.6814
2728.68	0.6798
2736.7	0.6785
2744.72	0.6772
2752.74	0.6759
2760.76	0.6741
2768.78	0.6723
2776.8	0.6704
2784.83	0.6686
2792.85	0.6664
2800.87	0.6641
2808.89	0.6619
2816.91	0.6596
2824.93	0.6574
2832.96	0.6552
2840.98	0.6533
2849	0.6513
2857.02	0.6494
2865.04	0.6474
2873.06	0.6459
2881.08	0.6444
2889.11	0.643
2897.13	0.6415
2905.15	0.6402
2913.17	0.6389
2921.19	0.6377
2929.21	0.6374
2937.23	0.6389
2945.26	0.6381
2953.28	0.6369
2961.3	0.6345
2969.32	0.6322
2977.34	0.6288
2985.36	0.6249
2993.39	0.6202
3001.41	0.6143
3009.43	0.6021
3017.45	0.5689
3025.47	0.5487
3033.49	0.6228
3041.51	0.6198
3049.54	0.5971
3057.56	0.5555
3065.58	0.5878
3073.6	0.6405
3081.62	0.6425
3089.64	0.6467
3097.66	0.6473
3105.69	0.6466
3113.71	0.6455
3121.73	0.6442
3129.75	0.6426
3137.77	0.6408
3145.79	0.6386
3153.82	0.6363
3161.84	0.634
3169.86	0.6317
3177.88	0.6293
3185.9	0.627
3193.92	0.6248
3201.94	0.6225
3209.97	0.6201
3217.99	0.6176
3226.01	0.6151
3234.03	0.6126
3242.05	0.6097
3250.07	0.6068
3258.09	0.6039
3266.12	0.6007
3274.14	0.5972
3282.16	0.5938
3290.18	0.5901
3298.2	0.5862
3306.22	0.5823
3314.25	0.5784
3322.27	0.5728
3330.29	0.5664
3338.31	0.5541
3346.33	0.5432
3354.35	0.5345
3362.37	0.5283
3370.4	0.5235
3378.42	0.5212
3386.44	0.5196
3394.46	0.518
3402.48	0.5182
3410.5	0.5193
3418.52	0.5205
3426.55	0.5217
3434.57	0.5244
3442.59	0.5274
3450.61	0.5304
3458.63	0.5328
3466.65	0.5351
3474.68	0.5376
3482.7	0.5404
3490.72	0.5437
3498.74	0.5469
3506.76	0.55
3514.78	0.5533
3522.8	0.5564
3530.83	0.5603
3538.85	0.5652
3546.87	0.57
3554.89	0.5758
3562.91	0.5829
3570.93	0.59
3578.95	0.5943
3586.98	0.5979
3595	0.6001
3603.02	0.602
3611.04	0.6041
3619.06	0.6057
3627.08	0.6067
3635.11	0.6078
3643.13	0.6082
3651.15	0.6086
3659.17	0.609
3667.19	0.6094
3675.21	0.6094
3683.23	0.6092
3691.26	0.609
3699.28	0.6089
3707.3	0.6086
3715.32	0.6076
3723.34	0.6066
3731.36	0.6056
3739.38	0.6046
3747.41	0.6037
3755.43	0.6028
3763.45	0.602
3771.47	0.601
3779.49	0.6001
3787.51	0.5992
3795.54	0.5986
3803.56	0.598
