Infrared Spectrum: 2-(P-METHYLPHENOXY)-3-METHYL PYRAZINE
Formula: C12 H12 N2 O
CAS: 91392-06-2
State: LIQUID
Class: COBLENTZ
Instrument: Not specified, most likely a prism, grating, or hybrid spectrometer.
Sampling: TRANSMISSION
Path length: CAPILLARY
Resolution: 4
Origin: WYANDOTTE CHEMICALS CORP., WYANDOTTE, MICHIGAN, USA
MICROMETERS	TRANSMITTANCE
2.06	0.96
2.09985	0.956
2.1397	0.96
2.17955	0.958
2.21939	0.955
2.25924	0.956
2.29909	0.958
2.33894	0.96
2.37879	0.956
2.41864	0.956
2.45849	0.958
2.49833	0.956
2.53818	0.958
2.57803	0.968
2.61788	0.963
2.65773	0.976
2.69758	0.961
2.73743	0.958
2.77727	0.958
2.81712	0.951
2.85697	0.93
2.89682	0.925
2.93667	0.915
2.97652	0.908
3.01637	0.915
3.05621	0.912
3.09606	0.917
3.13591	0.915
3.17576	0.913
3.21561	0.903
3.25546	0.865
3.29531	0.701
3.33515	0.783
3.375	0.774
3.41485	0.746
3.4547	0.821
3.49455	0.839
3.5344	0.88
3.57425	0.937
3.61409	0.953
3.65394	0.953
3.69379	0.953
3.73364	0.963
3.77349	0.97
3.81334	0.976
3.85319	0.976
3.89303	0.976
3.93288	0.971
3.97273	0.971
4.01258	0.975
4.05243	0.971
4.09228	0.96
4.13213	0.956
4.17197	0.956
4.21182	0.956
4.25167	0.961
4.29152	0.95
4.33137	0.963
4.37122	0.978
4.41107	0.988
4.45091	0.988
4.49076	0.973
4.53061	0.978
4.57046	0.981
4.61031	0.981
4.65016	0.988
4.69001	0.986
4.72985	0.97
4.7697	0.976
4.80955	0.981
4.8494	0.985
4.88925	0.981
4.9291	0.963
4.96895	0.956
5.00879	0.965
5.04864	0.971
5.08849	0.971
5.12834	0.971
5.16819	0.965
5.20804	0.96
5.24789	0.968
5.28773	0.95
5.32758	0.908
5.36743	0.928
5.40728	0.961
5.44713	0.968
5.48698	0.97
5.52683	0.968
5.56667	0.953
5.60652	0.942
5.64637	0.932
5.68622	0.935
5.72607	0.94
5.76592	0.938
5.80577	0.938
5.84561	0.937
5.88546	0.923
5.92531	0.912
5.96516	0.894
6.00501	0.877
6.04486	0.865
6.08471	0.872
6.12455	0.867
6.1644	0.809
6.20425	0.788
6.2441	0.731
6.28395	0.75
6.3238	0.769
6.36365	0.807
6.40349	0.789
6.44334	0.652
6.48319	0.514
6.52304	0.629
6.56289	0.596
6.60274	0.284
6.64259	0.2
6.68243	0.644
6.72228	0.741
6.76213	0.751
6.80198	0.672
6.84183	0.587
6.88168	0.5
6.92153	0.422
6.96137	0.332
7.00122	0.365
7.04107	0.36
7.08092	0.139
7.12077	0.043
7.16062	0.089
7.20047	0.139
7.24031	0.208
7.28016	0.289
7.32001	0.614
7.35986	0.769
7.39971	0.802
7.43956	0.784
7.47941	0.741
7.51925	0.644
7.5591	0.577
7.59895	0.539
7.6388	0.445
7.67865	0.365
7.7185	0.339
7.75835	0.256
7.79819	0.201
7.83804	0.336
7.87789	0.45
7.91774	0.375
7.95759	0.402
7.99744	0.342
8.03729	0.574
8.07713	0.607
8.11698	0.567
8.15683	0.49
8.19668	0.298
8.23653	0.102
8.27638	0.056
8.31623	0.105
8.35607	0.399
8.39592	0.503
8.43577	0.238
8.47562	0.208
8.51547	0.4
8.55532	0.22
8.59517	0.238
8.63501	0.501
8.67486	0.339
8.71471	0.432
8.75456	0.645
8.79441	0.741
8.83426	0.788
8.87411	0.802
8.91395	0.798
8.9538	0.783
8.99365	0.761
9.0335	0.713
9.07335	0.665
9.1132	0.784
9.15305	0.827
9.19289	0.827
9.23274	0.804
9.27259	0.796
9.31244	0.819
9.35229	0.827
9.39214	0.819
9.43199	0.816
9.47183	0.801
9.51168	0.793
9.55153	0.763
9.59138	0.738
9.63123	0.7
9.67108	0.677
9.71093	0.698
9.75077	0.741
9.79062	0.728
9.83047	0.557
9.87032	0.703
9.91017	0.708
9.95002	0.812
9.98987	0.857
10.0297	0.857
10.0696	0.857
10.1094	0.849
10.1493	0.816
10.1891	0.753
10.229	0.673
10.2688	0.629
10.3087	0.683
10.3485	0.766
10.3884	0.802
10.4282	0.814
10.468	0.826
10.5079	0.839
10.5477	0.854
10.5876	0.862
10.6274	0.872
10.6673	0.865
10.7071	0.849
10.747	0.837
10.7868	0.85
10.8267	0.867
10.8665	0.877
10.9064	0.88
10.9462	0.872
10.9861	0.854
11.0259	0.807
11.0658	0.668
11.1056	0.513
11.1455	0.632
11.1853	0.791
11.2252	0.829
11.265	0.849
11.3049	0.854
11.3447	0.852
11.3846	0.846
11.4244	0.837
11.4643	0.821
11.5041	0.798
11.544	0.759
11.5838	0.735
11.6237	0.693
11.6635	0.655
11.7034	0.627
11.7432	0.574
11.7831	0.5
11.8229	0.437
11.8627	0.39
11.9026	0.384
11.9424	0.379
11.9823	0.365
12.0221	0.342
12.062	0.349
12.1018	0.379
12.1417	0.403
12.1815	0.442
12.2214	0.493
12.2612	0.564
12.3011	0.635
12.3409	0.687
12.3808	0.726
12.4206	0.766
12.4605	0.793
12.5003	0.811
12.5402	0.819
12.58	0.821
12.6199	0.819
12.6597	0.824
12.6996	0.819
12.7394	0.812
12.7793	0.793
12.8191	0.766
12.859	0.725
12.8988	0.677
12.9387	0.644
12.9785	0.658
13.0184	0.74
13.0582	0.784
13.0981	0.802
13.1379	0.807
13.1778	0.816
13.2176	0.821
13.2574	0.804
13.2973	0.778
13.3371	0.758
13.377	0.745
13.4168	0.751
13.4567	0.773
13.4965	0.784
13.5364	0.794
13.5762	0.802
13.6161	0.809
13.6559	0.814
13.6958	0.814
13.7356	0.814
13.7755	0.814
13.8153	0.814
13.8552	0.816
13.895	0.821
13.9349	0.827
13.9747	0.836
14.0146	0.842
14.0544	0.852
14.0943	0.86
14.1341	0.864
14.174	0.864
14.2138	0.864
14.2537	0.859
14.2935	0.865
14.3334	0.855
14.3732	0.855
14.4131	0.846
14.4529	0.855
14.4928	0.855
14.5326	0.855
14.5725	0.855
14.6123	0.852
14.6521	0.854
14.692	0.857
14.7318	0.857
14.7717	0.857
14.8115	0.857
14.8514	0.857
14.8912	0.857
14.9311	0.859
14.9709	0.857
15.0108	0.837
15.0506	0.809
15.0905	0.786
15.1303	0.826
15.1702	0.839
15.21	0.846
15.2499	0.832
15.2897	0.826
15.3296	0.817
15.3694	0.812
15.4093	0.806
15.4491	0.801
15.489	0.796
15.5288	0.784
15.5687	0.779
15.6085	0.776
15.6484	0.776
15.6882	0.769
15.7281	0.769
15.7679	0.766
15.8078	0.764
15.8476	0.756
15.8875	0.754
15.9273	0.751
15.9672	0.74
16.007	0.738
