Infrared Spectrum: 1,2,3-BENZOTRIAZINE-4(3H)-ONE, 6-NITRO-
Formula: C7 H4 N4 O3
CAS: 91532-29-5
State: SOLID (1 mg / 500 mg KBr DISC)
Class: COBLENTZ III
Instrument: PERKIN-ELMER 621
Sampling: TRANSMISSION
Resolution: 4
Origin: SOUTHERN RESEARCH INSTITUTE
1/CM	TRANSMITTANCE
246.497	0.19
257.005	0.2829
267.513	0.3949
278.021	0.4879
288.529	0.627
299.037	0.644
309.545	0.661
320.052	0.706
330.56	0.693
341.068	0.734
351.576	0.805
362.084	0.813
372.592	0.819
383.1	0.823
393.608	0.825
404.116	0.826
414.624	0.825
425.132	0.805
435.64	0.828
446.148	0.825
456.655	0.813
467.163	0.791
477.671	0.778
488.179	0.787
498.687	0.754
509.195	0.762
519.703	0.7011
530.211	0.5579
540.719	0.5101
551.227	0.6809
561.735	0.778
572.243	0.6081
582.751	0.8299
593.259	0.825
603.766	0.783
614.274	0.751
624.782	0.3509
635.29	0.819
645.798	0.797
656.306	0.784
666.814	0.754
677.322	0.6941
687.83	0.74
698.338	0.745
708.846	0.727
719.354	0.694
729.862	0.599
740.369	0.648
750.877	0.3889
761.385	0.708
771.893	0.637
782.401	0.5461
792.909	0.5989
803.417	0.476
813.925	0.493
824.433	0.489
834.941	0.539
845.449	0.577
855.957	0.378
866.465	0.565
876.972	0.694
887.48	0.674
897.988	0.627
908.496	0.377
919.004	0.742
929.512	0.544
940.02	0.5618
950.528	0.4118
961.036	0.812
971.544	0.793
982.052	0.77
992.56	0.742
1003.07	0.723
1013.58	0.68
1024.08	0.613
1034.59	0.571
1045.1	0.5781
1055.61	0.4899
1066.12	0.4021
1076.62	0.609
1087.13	0.723
1097.64	0.715
1108.15	0.676
1118.65	0.616
1129.16	0.543
1139.67	0.19
1150.18	0.6562
1160.69	0.787
1171.19	0.759
1181.7	0.725
1192.21	0.686
1202.72	0.5991
1213.23	0.5
1223.73	0.56
1234.24	0.3829
1244.75	0.59
1255.26	0.3279
1265.77	0.638
1276.27	0.69
1286.78	0.665
1297.29	0.635
1307.8	0.59
1318.31	0.52
1328.81	0.361
1339.32	0.107
1349.83	0.1241
1360.34	0.3429
1370.84	0.627
1381.35	0.69
1391.86	0.71
1402.37	0.674
1412.88	0.676
1423.38	0.647
1433.89	0.613
1444.4	0.548
1454.91	0.368
1465.42	0.541
1475.92	0.577
1486.43	0.56
1496.94	0.493
1507.45	0.3649
1517.96	0.253
1528.46	0.184
1538.97	0.389
1549.48	0.415
1559.99	0.687
1570.5	0.63
1581	0.556
1591.51	0.552
1602.02	0.493
1612.53	0.334
1623.04	0.511
1633.54	0.45
1644.05	0.383
1654.56	0.322
1665.07	0.1779
1675.57	0.08
1686.08	0.212
1696.59	0.261
1707.1	0.093
1717.61	0.1441
1728.11	0.4619
1738.62	0.633
1749.13	0.71
1759.64	0.74
1770.15	0.736
1780.65	0.765
1791.16	0.83
1801.67	0.852
1812.18	0.852
1822.69	0.848
1833.19	0.821
1843.7	0.821
1854.21	0.798
1864.72	0.795
1875.23	0.806
1885.73	0.818
1896.24	0.817
1906.75	0.815
1917.26	0.809
1927.76	0.805
1938.27	0.795
1948.78	0.784
1959.29	0.774
1969.8	0.766
1980.3	0.768
1990.81	0.77
2001.32	0.774
2011.83	0.767
2022.34	0.763
2032.84	0.754
2043.35	0.748
2053.86	0.748
2064.37	0.745
2074.88	0.745
2085.38	0.742
2095.89	0.738
2106.4	0.737
2116.91	0.733
2127.42	0.727
2137.92	0.724
2148.43	0.719
2158.94	0.718
2169.45	0.712
2179.96	0.712
2190.46	0.711
2200.97	0.706
2211.48	0.704
2221.99	0.701
2232.49	0.699
2243	0.687
2253.51	0.681
2264.02	0.672
2274.53	0.668
2285.03	0.671
2295.54	0.668
2306.05	0.663
2316.56	0.663
2327.07	0.66
2337.57	0.657
2348.08	0.651
2358.59	0.65
2369.1	0.648
2379.61	0.647
2390.11	0.646
2400.62	0.644
2411.13	0.644
2421.64	0.643
2432.15	0.638
2442.65	0.637
2453.16	0.633
2463.67	0.626
2474.18	0.624
2484.68	0.62
2495.19	0.622
2505.7	0.622
2516.21	0.622
2526.72	0.624
2537.22	0.622
2547.73	0.62
2558.24	0.617
2568.75	0.616
2579.26	0.608
2589.76	0.603
2600.27	0.601
2610.78	0.601
2621.29	0.6
2631.8	0.599
2642.3	0.597
2652.81	0.587
2663.32	0.582
2673.83	0.578
2684.34	0.574
2694.84	0.562
2705.35	0.556
2715.86	0.554
2726.37	0.554
2736.88	0.546
2747.38	0.528
2757.89	0.533
2768.4	0.533
2778.91	0.531
2789.41	0.522
2799.92	0.519
2810.43	0.509
2820.94	0.49
2831.45	0.479
2841.95	0.488
2852.46	0.476
2862.97	0.459
2873.48	0.437
2883.99	0.404
2894.49	0.419
2905	0.46
2915.51	0.454
2926.02	0.443
2936.53	0.432
2947.03	0.409
2957.54	0.385
2968.05	0.36
2978.56	0.378
2989.07	0.39
2999.57	0.375
3010.08	0.339
3020.59	0.285
3031.1	0.266
3041.6	0.33
3052.11	0.364
3062.62	0.356
3073.13	0.343
3083.64	0.322
3094.14	0.284
3104.65	0.262
3115.16	0.254
3125.67	0.246
3136.18	0.231
3146.68	0.22
3157.19	0.218
3167.7	0.221
3178.21	0.237
3188.72	0.284
3199.22	0.332
3209.73	0.334
3220.24	0.328
3230.75	0.338
3241.26	0.385
3251.76	0.453
3262.27	0.5101
3272.78	0.571
3283.29	0.605
3293.8	0.624
3304.3	0.637
3314.81	0.637
3325.32	0.631
3335.83	0.625
3346.33	0.616
3356.84	0.604
3367.35	0.595
3377.86	0.592
3388.37	0.588
3398.87	0.582
3409.38	0.577
3419.89	0.573
3430.4	0.569
3440.91	0.562
3451.41	0.561
3461.92	0.56
3472.43	0.558
3482.94	0.558
3493.45	0.558
3503.95	0.557
3514.46	0.557
3524.97	0.558
3535.48	0.56
3545.99	0.56
3556.49	0.562
3567	0.563
3577.51	0.566
3588.02	0.567
3598.52	0.569
3609.03	0.57
3619.54	0.573
3630.05	0.575
3640.56	0.574
3651.06	0.577
3661.57	0.575
3672.08	0.575
3682.59	0.575
3693.1	0.573
3703.6	0.573
3714.11	0.573
3724.62	0.57
3735.13	0.567
3745.64	0.566
3756.14	0.566
3766.65	0.566
3777.16	0.565
3787.67	0.562
3798.18	0.561
3808.68	0.561
3819.19	0.56
3829.7	0.554
3840.21	0.556
3850.72	0.554
3861.22	0.552
3871.73	0.552
3882.24	0.549
3892.75	0.549
3903.25	0.546
3913.76	0.546
3924.27	0.544
3934.78	0.541
3945.29	0.541
3955.79	0.539
3966.3	0.537
3976.81	0.536
3987.32	0.535
3997.83	0.535
