Infrared Spectrum: 1-BENZYL-3-CARBETHOXYMETHYL UREA
Formula: C12 H16 N2 O3
CAS: 91558-02-0
State: SOLID (KBr PRESSING)
Melting point: 96 C
Class: COBLENTZ
Instrument: Not specified, most likely a prism, grating, or hybrid spectrometer.
Sampling: TRANSMISSION
Resolution: 4
Origin: EASTMAN KODAK COMPANY, RESEARCH LABORATORIES, ROCHESTER, N.Y.
MICROMETERS	TRANSMITTANCE
2.172	0.646
2.20708	0.645
2.24216	0.648
2.27724	0.65
2.31231	0.652
2.34739	0.659
2.38247	0.66
2.41755	0.662
2.45263	0.666
2.48771	0.671
2.52279	0.678
2.55786	0.678
2.59294	0.688
2.62802	0.688
2.6631	0.688
2.69818	0.683
2.73326	0.65
2.76834	0.599
2.80341	0.562
2.83849	0.531
2.87357	0.522
2.90865	0.491
2.94373	0.239
2.97881	0.197
3.01389	0.431
3.04896	0.54
3.08404	0.601
3.11912	0.627
3.1542	0.639
3.18928	0.646
3.22436	0.669
3.25944	0.666
3.29451	0.652
3.32959	0.599
3.36467	0.657
3.39975	0.645
3.43483	0.652
3.46991	0.699
3.50499	0.723
3.54006	0.737
3.57514	0.75
3.61022	0.755
3.6453	0.758
3.68038	0.758
3.71546	0.767
3.75054	0.772
3.78561	0.779
3.82069	0.776
3.85577	0.772
3.89085	0.779
3.92593	0.784
3.96101	0.786
3.99609	0.788
4.03116	0.788
4.06624	0.79
4.10132	0.79
4.1364	0.795
4.17148	0.797
4.20656	0.797
4.24164	0.798
4.27671	0.798
4.31179	0.798
4.34687	0.798
4.38195	0.798
4.41703	0.8
4.45211	0.802
4.48718	0.804
4.52226	0.804
4.55734	0.804
4.59242	0.807
4.6275	0.809
4.66258	0.809
4.69766	0.811
4.73273	0.816
4.76781	0.819
4.80289	0.819
4.83797	0.818
4.87305	0.816
4.90813	0.816
4.94321	0.816
4.97828	0.819
5.01336	0.819
5.04844	0.818
5.08352	0.816
5.1186	0.816
5.15368	0.816
5.18876	0.814
5.22383	0.816
5.25891	0.811
5.29399	0.811
5.32907	0.811
5.36415	0.811
5.39923	0.811
5.43431	0.811
5.46938	0.809
5.50446	0.798
5.53954	0.798
5.57462	0.797
5.6097	0.77
5.64478	0.727
5.67986	0.416
5.71493	0.25
5.75001	0.176
5.78509	0.681
5.82017	0.725
5.85525	0.734
5.89033	0.736
5.92541	0.746
5.96048	0.708
5.99556	0.657
6.03064	0.59
6.06572	0.526
6.1008	0.297
6.13588	0.048
6.17096	0.027
6.20603	0.262
6.24111	0.281
6.27619	0.097
6.31127	0.106
6.34635	0.124
6.38143	0.223
6.41651	0.354
6.45158	0.517
6.48666	0.54
6.52174	0.568
6.55682	0.573
6.5919	0.639
6.62698	0.655
6.66206	0.618
6.69713	0.631
6.73221	0.725
6.76729	0.666
6.80237	0.59
6.83745	0.685
6.87253	0.627
6.90761	0.597
6.94268	0.636
6.97776	0.687
7.01284	0.674
7.04792	0.697
7.083	0.673
7.11808	0.592
7.15316	0.603
7.18823	0.636
7.22331	0.454
7.25839	0.41
7.29347	0.701
7.32855	0.727
7.36363	0.701
7.39871	0.423
7.43378	0.671
7.46886	0.722
7.50394	0.755
7.53902	0.76
7.5741	0.758
7.60918	0.753
7.64426	0.753
7.67933	0.748
7.71441	0.739
7.74949	0.732
7.78457	0.729
7.81965	0.716
7.85473	0.694
7.88981	0.678
7.92488	0.674
7.95996	0.664
7.99504	0.643
8.03012	0.629
8.0652	0.571
8.10028	0.501
8.13536	0.391
8.17043	0.225
8.20551	0.11
8.24059	0.068
8.27567	0.11
8.31075	0.262
8.34583	0.407
8.38091	0.494
8.41598	0.568
8.45106	0.622
8.48614	0.655
8.52122	0.667
8.5563	0.695
8.59138	0.704
8.62646	0.692
8.66153	0.66
8.69661	0.739
8.73169	0.756
8.76677	0.758
8.80185	0.762
8.83693	0.769
8.87201	0.769
8.90708	0.756
8.94216	0.734
8.97724	0.722
9.01232	0.739
9.0474	0.758
9.08248	0.755
9.11755	0.744
9.15263	0.695
9.18771	0.645
9.22279	0.659
9.25787	0.667
9.29295	0.58
9.32803	0.61
9.3631	0.678
9.39818	0.687
9.43326	0.709
9.46834	0.777
9.50342	0.798
9.5385	0.811
9.57358	0.804
9.60865	0.776
9.64373	0.681
9.67881	0.585
9.71389	0.613
9.74897	0.694
9.78405	0.75
9.81913	0.784
9.8542	0.802
9.88928	0.816
9.92436	0.819
9.95944	0.825
9.99452	0.825
10.0296	0.826
10.0647	0.828
10.0998	0.835
10.1348	0.842
10.1699	0.84
10.205	0.853
10.2401	0.842
10.2751	0.833
10.3102	0.825
10.3453	0.833
10.3804	0.842
10.4155	0.842
10.4505	0.844
10.4856	0.839
10.5207	0.84
10.5558	0.84
10.5909	0.837
10.6259	0.828
10.661	0.821
10.6961	0.832
10.7312	0.832
10.7662	0.844
10.8013	0.849
10.8364	0.853
10.8715	0.851
10.9066	0.849
10.9416	0.846
10.9767	0.84
11.0118	0.846
11.0469	0.851
11.082	0.854
11.117	0.867
11.1521	0.861
11.1872	0.867
11.2223	0.863
11.2573	0.865
11.2924	0.863
11.3275	0.861
11.3626	0.861
11.3977	0.847
11.4327	0.832
11.4678	0.805
11.5029	0.802
11.538	0.833
11.5731	0.853
11.6081	0.856
11.6432	0.865
11.6783	0.865
11.7134	0.861
11.7484	0.867
11.7835	0.867
11.8186	0.867
11.8537	0.865
11.8888	0.856
11.9238	0.854
11.9589	0.851
11.994	0.847
12.0291	0.844
12.0642	0.851
12.0992	0.854
12.1343	0.856
12.1694	0.867
12.2045	0.861
12.2395	0.858
12.2746	0.853
12.3097	0.847
12.3448	0.856
12.3799	0.867
12.4149	0.865
12.45	0.863
12.4851	0.865
12.5202	0.863
12.5553	0.863
12.5903	0.865
12.6254	0.863
12.6605	0.865
12.6956	0.861
12.7306	0.86
12.7657	0.851
12.8008	0.846
12.8359	0.826
12.871	0.804
12.906	0.802
12.9411	0.8
12.9762	0.793
13.0113	0.758
13.0464	0.695
13.0814	0.645
13.1165	0.634
13.1516	0.643
13.1867	0.676
13.2217	0.685
13.2568	0.704
13.2919	0.723
13.327	0.762
13.3621	0.774
13.3971	0.791
13.4322	0.797
13.4673	0.798
13.5024	0.798
13.5375	0.8
13.5725	0.8
13.6076	0.802
13.6427	0.802
13.6778	0.802
13.7128	0.802
13.7479	0.802
13.783	0.797
13.8181	0.788
13.8532	0.786
13.8882	0.784
13.9233	0.776
13.9584	0.762
13.9935	0.756
14.0286	0.746
14.0636	0.72
14.0987	0.685
14.1338	0.643
14.1689	0.578
14.2039	0.498
14.239	0.435
14.2741	0.372
14.3092	0.347
14.3443	0.416
14.3793	0.515
14.4144	0.608
14.4495	0.653
14.4846	0.667
14.5197	0.681
14.5547	0.685
14.5898	0.685
14.6249	0.683
14.66	0.674
14.695	0.66
14.7301	0.653
14.7652	0.65
14.8003	0.643
14.8354	0.634
14.8704	0.622
14.9055	0.613
14.9406	0.608
14.9757	0.604
15.0108	0.603
15.0458	0.594
15.0809	0.589
15.116	0.58
15.1511	0.578
15.1861	0.578
15.2212	0.573
15.2563	0.573
15.2914	0.578
15.3265	0.576
15.3615	0.576
15.3966	0.578
15.4317	0.582
15.4668	0.589
15.5019	0.594
15.5369	0.594
15.572	0.594
15.6071	0.596
15.6422	0.597
15.6772	0.601
15.7123	0.601
15.7474	0.601
15.7825	0.599
15.8176	0.599
15.8526	0.599
15.8877	0.601
15.9228	0.601
15.9579	0.599
15.993	0.596
