Infrared Spectrum: O-NITRO CARBANILIC ACID, n-PENTYL ESTER
Formula: C12 H16 N2 O4
CAS: 91558-46-2
Class: COBLENTZ
Instrument: Not specified, most likely a grating spectrometer.
Sampling: TRANSMISSION
Path length: CAPILLARY
Resolution: 4
Origin: CITRUS EXPERIMENT STATION, UNIVERSITY OF FLORIDA (G. EDWARDS)
MICROMETERS	TRANSMITTANCE
2.033	0.921
2.06618	0.921
2.09935	0.921
2.13253	0.921
2.16571	0.92
2.19888	0.917
2.23206	0.916
2.26524	0.916
2.29842	0.914
2.33159	0.916
2.36477	0.917
2.39795	0.917
2.43112	0.917
2.4643	0.918
2.49748	0.921
2.53065	0.924
2.56383	0.929
2.59701	0.929
2.63018	0.925
2.66336	0.922
2.69654	0.918
2.72971	0.918
2.76289	0.916
2.79607	0.914
2.82925	0.917
2.86242	0.886
2.8956	0.873
2.92878	0.772
2.96195	0.485
2.99513	0.74
3.02831	0.857
3.06148	0.886
3.09466	0.904
3.12784	0.896
3.16101	0.884
3.19419	0.841
3.22737	0.849
3.26054	0.86
3.29372	0.868
3.3269	0.782
3.36008	0.404
3.39325	0.461
3.42643	0.608
3.45961	0.59
3.49278	0.664
3.52596	0.85
3.55914	0.884
3.59231	0.888
3.62549	0.89
3.65867	0.904
3.69184	0.905
3.72502	0.906
3.7582	0.908
3.79138	0.908
3.82455	0.908
3.85773	0.908
3.89091	0.913
3.92408	0.914
3.95726	0.912
3.99044	0.912
4.02361	0.912
4.05679	0.91
4.08997	0.904
4.12314	0.902
4.15632	0.905
4.1895	0.901
4.22267	0.886
4.25585	0.89
4.28903	0.91
4.32221	0.924
4.35538	0.916
4.38856	0.913
4.42174	0.912
4.45491	0.91
4.48809	0.909
4.52127	0.909
4.55444	0.91
4.58762	0.912
4.6208	0.912
4.65397	0.912
4.68715	0.913
4.72033	0.914
4.75351	0.916
4.78668	0.917
4.81986	0.917
4.85304	0.917
4.88621	0.917
4.91939	0.917
4.95257	0.916
4.98574	0.913
5.01892	0.909
5.0521	0.905
5.08527	0.901
5.11845	0.897
5.15163	0.893
5.1848	0.905
5.21798	0.908
5.25116	0.905
5.28434	0.908
5.31751	0.902
5.35069	0.888
5.38387	0.88
5.41704	0.877
5.45022	0.849
5.4834	0.84
5.51657	0.844
5.54975	0.829
5.58293	0.81
5.6161	0.766
5.64928	0.661
5.68246	0.306
5.71563	0.144
5.74881	0.272
5.78199	0.497
5.81517	0.718
5.84834	0.766
5.88152	0.81
5.9147	0.822
5.94787	0.821
5.98105	0.817
6.01423	0.801
6.0474	0.774
6.08058	0.761
6.11376	0.7
6.14693	0.601
6.18011	0.213
6.21329	0.294
6.24647	0.524
6.27964	0.288
6.31282	0.232
6.346	0.606
6.37917	0.672
6.41235	0.581
6.44553	0.5
6.4787	0.457
6.51188	0.404
6.54506	0.165
6.57823	0.102
6.61141	0.09
6.64459	0.112
6.67776	0.28
6.71094	0.498
6.74412	0.522
6.7773	0.418
6.81047	0.332
6.84365	0.221
6.87683	0.261
6.91	0.274
6.94318	0.186
6.97636	0.238
7.00953	0.366
7.04271	0.476
7.07589	0.541
7.10906	0.59
7.14224	0.586
7.17542	0.557
7.2086	0.516
7.24177	0.549
7.27495	0.601
7.30813	0.581
7.3413	0.498
7.37448	0.342
7.40766	0.144
7.44083	0.106
7.47401	0.248
7.50719	0.428
7.54036	0.404
7.57354	0.317
7.60672	0.397
7.63989	0.413
7.67307	0.418
7.70625	0.396
7.73943	0.337
7.7726	0.265
7.80578	0.228
7.83896	0.261
7.87213	0.324
7.90531	0.402
7.93849	0.361
7.97166	0.27
8.00484	0.14
8.03802	0.105
8.07119	0.141
8.10437	0.26
8.13755	0.397
8.17072	0.412
8.2039	0.345
8.23708	0.281
8.27026	0.17
8.30343	0.11
8.33661	0.1
8.36979	0.185
8.40296	0.385
8.43614	0.516
8.46932	0.598
8.50249	0.637
8.53567	0.581
8.56885	0.46
8.60202	0.417
8.6352	0.477
8.66838	0.508
8.70156	0.422
8.73473	0.55
8.76791	0.696
8.80109	0.732
8.83426	0.748
8.86744	0.75
8.90062	0.733
8.93379	0.726
8.96697	0.73
9.00015	0.74
9.03332	0.745
9.0665	0.738
9.09968	0.717
9.13285	0.642
9.16603	0.448
9.19921	0.332
9.23239	0.417
9.26556	0.505
9.29874	0.525
9.33192	0.506
9.36509	0.486
9.39827	0.449
9.43145	0.368
9.46462	0.338
9.4978	0.388
9.53098	0.445
9.56415	0.441
9.59733	0.446
9.63051	0.536
9.66369	0.586
9.69686	0.637
9.73004	0.677
9.76322	0.72
9.79639	0.765
9.82957	0.776
9.86275	0.78
9.89592	0.784
9.9291	0.789
9.96228	0.804
9.99545	0.804
10.0286	0.802
10.0618	0.8
10.095	0.796
10.1282	0.788
10.1613	0.778
10.1945	0.761
10.2277	0.737
10.2609	0.725
10.294	0.721
10.3272	0.726
10.3604	0.732
10.3936	0.733
10.4268	0.734
10.4599	0.736
10.4931	0.76
10.5263	0.785
10.5595	0.821
10.5926	0.841
10.6258	0.861
10.659	0.864
10.6922	0.874
10.7253	0.877
10.7585	0.892
10.7917	0.884
10.8249	0.884
10.8581	0.882
10.8912	0.881
10.9244	0.881
10.9576	0.88
10.9908	0.878
11.0239	0.874
11.0571	0.873
11.0903	0.873
11.1235	0.872
11.1566	0.87
11.1898	0.87
11.223	0.874
11.2562	0.881
11.2894	0.882
11.3225	0.881
11.3557	0.868
11.3889	0.858
11.4221	0.838
11.4552	0.797
11.4884	0.737
11.5216	0.642
11.5548	0.509
11.5879	0.538
11.6211	0.64
11.6543	0.73
11.6875	0.765
11.7207	0.776
11.7538	0.777
11.787	0.781
11.8202	0.781
11.8534	0.78
11.8865	0.77
11.9197	0.753
11.9529	0.726
11.9861	0.71
12.0192	0.709
12.0524	0.729
12.0856	0.742
12.1188	0.776
12.152	0.798
12.1851	0.81
12.2183	0.83
12.2515	0.836
12.2847	0.838
12.3178	0.842
12.351	0.842
12.3842	0.842
12.4174	0.841
12.4505	0.84
12.4837	0.832
12.5169	0.824
12.5501	0.812
12.5833	0.782
12.6164	0.75
12.6496	0.714
12.6828	0.657
12.716	0.581
12.7491	0.492
12.7823	0.464
12.8155	0.493
12.8487	0.56
12.8818	0.645
12.915	0.682
12.9482	0.664
12.9814	0.622
13.0146	0.557
13.0477	0.522
13.0809	0.537
13.1141	0.572
13.1473	0.616
13.1804	0.649
13.2136	0.68
13.2468	0.697
13.28	0.682
13.3131	0.638
13.3463	0.57
13.3795	0.473
13.4127	0.378
13.4459	0.313
13.479	0.276
13.5122	0.272
13.5454	0.306
13.5786	0.385
13.6117	0.482
13.6449	0.533
13.6781	0.581
13.7113	0.608
13.7444	0.625
13.7776	0.645
13.8108	0.673
13.844	0.686
13.8772	0.698
13.9103	0.712
13.9435	0.722
13.9767	0.728
14.0099	0.724
14.043	0.722
14.0762	0.721
14.1094	0.718
14.1426	0.716
14.1757	0.706
14.2089	0.702
14.2421	0.697
14.2753	0.692
14.3084	0.68
14.3416	0.666
14.3748	0.653
14.408	0.632
14.4412	0.604
14.4743	0.573
14.5075	0.557
14.5407	0.552
14.5739	0.554
14.607	0.557
14.6402	0.553
14.6734	0.544
14.7066	0.536
14.7397	0.522
14.7729	0.516
14.8061	0.512
14.8393	0.51
14.8725	0.522
14.9056	0.538
14.9388	0.541
14.972	0.521
15.0052	0.52
