Infrared Spectrum: FORMAMIDE, N-[4-AMINO-6-(BENZYLTHIO)PYRIMIDIN-5-YL]-
Formula: C12 H12 N4 O S
CAS: 91560-22-4
State: SOLID (0.8 mg / 650 mg KBr DISC)
Class: COBLENTZ III
Instrument: PERKIN-ELMER 221 (GRATING)
Instrument parameters: FILTER AT 2490, 980 CM^-^1. GRATING 4000-1428 CM^-^1, NaCl PRISM 1428-650 CM^-^1
Sampling: TRANSMISSION
Resolution: 2
Origin: SOUTHERN RESEARCH INSTITUTE
1/CM	TRANSMITTANCE
633.7	0.8255
642.737	0.7922
651.773	0.8118
660.81	0.8118
669.847	0.7474
678.883	0.7452
687.92	0.715
696.957	0.4883
705.993	0.6483
715.03	0.6845
724.067	0.7908
733.103	0.7899
742.14	0.7878
751.177	0.7891
760.213	0.7598
769.25	0.5989
778.287	0.7587
787.323	0.8142
796.36	0.8082
805.397	0.7524
814.433	0.4853
823.47	0.7936
832.507	0.8407
841.543	0.838
850.58	0.824
859.617	0.8366
868.653	0.8335
877.69	0.8098
886.727	0.7278
895.763	0.8055
904.8	0.8299
913.837	0.817
922.873	0.7952
931.91	0.7721
940.946	0.7391
949.983	0.5214
959.02	0.5594
968.056	0.7364
977.093	0.8033
986.13	0.8482
995.166	0.8224
1004.2	0.8187
1013.24	0.7975
1022.28	0.7794
1031.31	0.7772
1040.35	0.777
1049.39	0.7699
1058.42	0.7578
1067.46	0.6936
1076.5	0.7483
1085.53	0.7936
1094.57	0.7865
1103.61	0.7755
1112.64	0.7633
1121.68	0.7525
1130.72	0.7551
1139.75	0.7723
1148.79	0.7699
1157.83	0.7641
1166.86	0.7559
1175.9	0.7451
1184.94	0.7294
1193.97	0.6664
1203.01	0.6888
1212.05	0.6652
1221.08	0.6967
1230.12	0.6536
1239.16	0.6302
1248.19	0.6326
1257.23	0.6087
1266.27	0.6101
1275.3	0.6944
1284.34	0.7224
1293.38	0.727
1302.41	0.7263
1311.45	0.7172
1320.49	0.6908
1329.52	0.6418
1338.56	0.5112
1347.6	0.502
1356.63	0.7003
1365.67	0.672
1374.71	0.6188
1383.74	0.4536
1392.78	0.4379
1401.82	0.3646
1410.85	0.2983
1419.89	0.6357
1428.93	0.6354
1437.96	0.6253
1447	0.5757
1456.04	0.3938
1465.07	0.3796
1474.11	0.2712
1483.15	0.2571
1492.18	0.2421
1501.22	0.3592
1510.26	0.5081
1519.29	0.5032
1528.33	0.4911
1537.37	0.3676
1546.4	0.2351
1555.44	0.173
1564.48	0.1387
1573.51	0.3291
1582.55	0.5852
1591.59	0.6723
1600.62	0.6571
1609.66	0.5903
1618.7	0.4377
1627.73	0.3633
1636.77	0.3578
1645.81	0.2452
1654.84	0.329
1663.88	0.4575
1672.92	0.244
1681.95	0.3614
1690.99	0.4741
1700.03	0.6348
1709.06	0.7223
1718.1	0.7916
1727.14	0.8471
1736.17	0.8741
1745.21	0.8745
1754.25	0.8748
1763.28	0.8774
1772.32	0.8822
1781.36	0.8865
1790.39	0.8881
1799.43	0.8876
1808.47	0.887
1817.5	0.8863
1826.54	0.8858
1835.58	0.8854
1844.61	0.8844
1853.65	0.8832
1862.69	0.8809
1871.72	0.8758
1880.76	0.8684
1889.8	0.8654
1898.83	0.865
1907.87	0.866
1916.91	0.8658
1925.94	0.8652
1934.98	0.8608
1944.02	0.8559
1953.05	0.8556
1962.09	0.8566
1971.13	0.8568
1980.16	0.8571
1989.2	0.857
1998.24	0.8562
2007.27	0.8513
2016.31	0.8477
2025.35	0.8453
2034.38	0.8436
2043.42	0.8424
2052.46	0.8418
2061.49	0.841
2070.53	0.8401
2079.57	0.8392
2088.6	0.8382
2097.64	0.8361
2106.68	0.8332
2115.71	0.8296
2124.75	0.8272
2133.79	0.8267
2142.82	0.8275
2151.86	0.8279
2160.9	0.8275
2169.93	0.8257
2178.97	0.8234
2188.01	0.8203
2197.04	0.8178
2206.08	0.8157
2215.12	0.8143
2224.15	0.8135
2233.19	0.8127
2242.23	0.8113
2251.26	0.8098
2260.3	0.8083
2269.34	0.8056
2278.37	0.8029
2287.41	0.8009
2296.45	0.7993
2305.48	0.7977
2314.52	0.7962
2323.56	0.7947
2332.59	0.7933
2341.63	0.7922
2350.67	0.7921
2359.7	0.7916
2368.74	0.791
2377.78	0.7902
2386.81	0.7893
2395.85	0.7877
2404.89	0.7859
2413.92	0.784
2422.96	0.7823
2432	0.7812
2441.03	0.7807
2450.07	0.7807
2459.11	0.7817
2468.14	0.7834
2477.18	0.7891
2486.22	0.7744
2495.25	0.7737
2504.29	0.7736
2513.33	0.7724
2522.36	0.7705
2531.4	0.77
2540.44	0.7696
2549.47	0.7682
2558.51	0.7667
2567.55	0.7649
2576.58	0.7627
2585.62	0.7606
2594.66	0.7579
2603.69	0.7548
2612.73	0.7511
2621.77	0.7475
2630.8	0.7439
2639.84	0.7393
2648.88	0.7347
2657.91	0.7297
2666.95	0.7243
2675.99	0.7192
2685.02	0.7143
2694.06	0.709
2703.1	0.7053
2712.13	0.7037
2721.17	0.7035
2730.21	0.7033
2739.24	0.7028
2748.28	0.7006
2757.32	0.6973
2766.35	0.6928
2775.39	0.6873
2784.43	0.6825
2793.46	0.6787
2802.5	0.6746
2811.54	0.6704
2820.57	0.664
2829.61	0.6548
2838.65	0.6449
2847.68	0.634
2856.72	0.6208
2865.76	0.6039
2874.79	0.6056
2883.83	0.5969
2892.87	0.5903
2901.9	0.5888
2910.94	0.5841
2919.98	0.5798
2929.01	0.5773
2938.05	0.5764
2947.09	0.5735
2956.12	0.5669
2965.16	0.5646
2974.2	0.5662
2983.23	0.5719
2992.27	0.5778
3001.31	0.5762
3010.34	0.5675
3019.38	0.5489
3028.42	0.5321
3037.45	0.5251
3046.49	0.5079
3055.53	0.4864
3064.56	0.4642
3073.6	0.4435
3082.64	0.4225
3091.67	0.3987
3100.71	0.3771
3109.75	0.3616
3118.78	0.3583
3127.82	0.3593
3136.86	0.3655
3145.89	0.3767
3154.93	0.3914
3163.97	0.4059
3173	0.4258
3182.04	0.4787
3191.08	0.4987
3200.11	0.5038
3209.15	0.5165
3218.19	0.532
3227.22	0.543
3236.26	0.5514
3245.3	0.5535
3254.33	0.5484
3263.37	0.5284
3272.41	0.4895
3281.44	0.4276
3290.48	0.3581
3299.52	0.3146
3308.55	0.3294
3317.59	0.4171
3326.63	0.4989
3335.66	0.5555
3344.7	0.5711
3353.74	0.5717
3362.77	0.5642
3371.81	0.5425
3380.85	0.4814
3389.88	0.4232
3398.92	0.4266
3407.96	0.4523
3416.99	0.4883
3426.03	0.5671
3435.07	0.6124
3444.1	0.6538
3453.14	0.6716
3462.18	0.6812
3471.21	0.6896
3480.25	0.6955
3489.29	0.7006
3498.32	0.7047
3507.36	0.7081
3516.4	0.7112
3525.43	0.7149
3534.47	0.7189
3543.51	0.7222
3552.54	0.7281
3561.58	0.7343
3570.62	0.7404
3579.65	0.7453
3588.69	0.7501
3597.72	0.755
3606.76	0.7566
3615.8	0.7578
3624.83	0.7585
3633.87	0.7597
3642.91	0.7612
3651.94	0.7617
3660.98	0.7617
3670.02	0.7614
3679.05	0.7606
3688.09	0.7601
3697.13	0.7599
3706.16	0.7591
3715.2	0.7583
3724.24	0.7581
3733.27	0.7582
3742.31	0.7573
3751.35	0.7556
3760.38	0.7538
3769.42	0.7514
3778.46	0.748
3787.49	0.7445
3796.53	0.7417
3805.57	0.7413
3814.6	0.741
3823.64	0.7408
3832.68	0.7409
3841.71	0.7415
3850.75	0.741
3859.79	0.7401
3868.82	0.7388
3877.86	0.7365
3886.9	0.7362
3895.93	0.7359
3904.97	0.7356
