Infrared Spectrum: Acetanilide, N-tert-butyl-
Formula: C12 H17 N O
CAS: 91562-67-3
State: SOLID (NUJOL MULL)
Class: COBLENTZ III
Instrument: BECKMAN IR-4 (HYBRID PRISM-GRATING)
Instrument parameters: NaCl PRISM
Sampling: TRANSMISSION
Path length: CAPILLARY
Resolution: 2
Origin: MONSANTO (J. FREEMAN)
1/CM	TRANSMITTANCE
626.382	1.029
635.131	1.0292
643.88	1.0294
652.629	1.0296
661.378	1.0298
670.127	1.03
678.876	0.9457
687.625	0.9913
696.374	0.7274
705.123	0.2496
713.872	0.6438
722.621	0.866
731.37	0.937
740.119	0.968
748.868	0.9844
757.617	0.9719
766.366	0.6608
775.115	0.7827
783.864	0.9493
792.613	0.9678
801.362	0.9615
810.111	0.9571
818.86	0.9757
827.609	0.9754
836.358	0.9692
845.107	0.971
853.856	0.9705
862.605	0.9687
871.354	0.9626
880.103	0.9565
888.852	0.9519
897.601	0.9415
906.35	0.8832
915.099	0.9382
923.848	0.8865
932.597	0.8277
941.346	0.9386
950.095	0.9269
958.844	0.8133
967.592	0.9092
976.341	0.909
985.09	0.9024
993.839	0.8937
1002.59	0.8216
1011.34	0.8716
1020.09	0.6876
1028.84	0.7487
1037.58	0.6597
1046.33	0.8188
1055.08	0.8768
1063.83	0.8776
1072.58	0.642
1081.33	0.8755
1090.08	0.8889
1098.83	0.8975
1107.58	0.9009
1116.33	0.8971
1125.07	0.8872
1133.82	0.8775
1142.57	0.8628
1151.32	0.8388
1160.07	0.7953
1168.82	0.6347
1177.57	0.6558
1186.32	0.4418
1195.07	0.2538
1203.82	0.3187
1212.56	0.5371
1221.31	0.4518
1230.06	0.6657
1238.81	0.7336
1247.56	0.7613
1256.31	0.7162
1265.06	0.681
1273.81	0.3827
1282.56	0.274
1291.31	0.5456
1300.05	0.6422
1308.8	0.6296
1317.55	0.5172
1326.3	0.2979
1335.05	0.0835
1343.8	0.1182
1352.55	0.44
1361.3	0.1454
1370.05	0.12
1378.79	0.15
1387.54	0.3276
1396.29	0.2922
1405.04	0.4181
1413.79	0.4619
1422.54	0.4483
1431.29	0.4497
1440.04	0.3767
1448.79	0.2863
1457.54	0.2126
1466.28	0.2082
1475.03	0.2718
1483.78	0.257
1492.53	0.3016
1501.28	0.5264
1510.03	0.7257
1518.78	0.738
1527.53	0.716
1536.28	0.6862
1545.03	0.6692
1553.77	0.6212
1562.52	0.5953
1571.27	0.5266
1580.02	0.3888
1588.77	0.2982
1597.52	0.319
1606.27	0.3943
1615.02	0.2873
1623.77	0.2088
1632.52	0.153
1641.26	0.084
1650.01	0.129
1658.76	0.1488
1667.51	0.1794
1676.26	0.3467
1685.01	0.5124
1693.76	0.6693
1702.51	0.7684
1711.26	0.7957
1720.01	0.8297
1728.75	0.9082
1737.5	0.926
1746.25	0.938
1755	0.9428
1763.75	0.9468
1772.5	0.9398
1781.25	0.9309
1790	0.9272
1798.75	0.9277
1807.5	0.931
1816.24	0.922
1824.99	0.9041
1833.74	0.9111
1842.49	0.9063
1851.24	0.8978
1859.99	0.8909
1868.74	0.8927
1877.49	0.8928
1886.24	0.8841
1894.99	0.875
1903.73	0.8672
1912.48	0.8604
1921.23	0.8569
1929.98	0.8621
1938.73	0.8682
1947.48	0.8647
1956.23	0.8607
1964.98	0.8553
1973.73	0.8485
1982.47	0.838
1991.22	0.8298
1999.97	0.8292
2008.72	0.8306
2017.47	0.8344
2026.22	0.8389
2034.97	0.8398
2043.72	0.8398
2052.47	0.8385
2061.22	0.8361
2069.96	0.8338
2078.71	0.8315
2087.46	0.829
2096.21	0.8265
2104.96	0.8242
2113.71	0.8218
2122.46	0.8192
2131.21	0.8168
2139.96	0.8141
2148.71	0.8108
2157.45	0.8076
2166.2	0.8043
2174.95	0.8011
2183.7	0.7981
2192.45	0.7951
2201.2	0.7923
2209.95	0.7894
2218.7	0.7865
2227.45	0.7837
2236.2	0.7809
2244.94	0.7783
2253.69	0.7756
2262.44	0.7729
2271.19	0.7703
2279.94	0.7674
2288.69	0.7646
2297.44	0.7617
2306.19	0.7595
2314.94	0.7576
2323.69	0.756
2332.43	0.755
2341.18	0.7541
2349.93	0.7531
2358.68	0.7523
2367.43	0.7515
2376.18	0.7507
2384.93	0.75
2393.68	0.7474
2402.43	0.7444
2411.18	0.7355
2419.92	0.7302
2428.67	0.7283
2437.42	0.7271
2446.17	0.726
2454.92	0.725
2463.67	0.724
2472.42	0.7226
2481.17	0.7206
2489.92	0.7186
2498.67	0.7167
2507.41	0.7148
2516.16	0.7126
2524.91	0.7099
2533.66	0.7072
2542.41	0.7043
2551.16	0.7017
2559.91	0.6989
2568.66	0.6962
2577.41	0.6935
2586.16	0.6909
2594.9	0.6883
2603.65	0.6852
2612.4	0.6817
2621.15	0.6781
2629.9	0.6746
2638.65	0.6727
2647.4	0.6714
2656.15	0.6714
2664.9	0.6707
2673.64	0.6668
2682.39	0.6624
2691.14	0.6595
2699.89	0.6567
2708.64	0.6539
2717.39	0.6521
2726.14	0.6508
2734.89	0.6494
2743.64	0.6481
2752.39	0.6479
2761.13	0.6486
2769.88	0.6503
2778.63	0.6523
2787.38	0.655
2796.13	0.657
2804.88	0.6577
2813.63	0.6565
2822.38	0.6517
2831.13	0.6417
2839.88	0.6283
2848.62	0.5936
2857.37	0.5148
2866.12	0.151
2874.87	0.1632
2883.62	0.1748
2892.37	0.1408
2901.12	0.0901
2909.87	0.0528
2918.62	0.0445
2927.37	0.0418
2936.11	0.0425
2944.86	0.0459
2953.61	0.0535
2962.36	0.0651
2971.11	0.1071
2979.86	0.1488
2988.61	0.1903
2997.36	0.2316
3006.11	0.2726
3014.86	0.3134
3023.6	0.3509
3032.35	0.3756
3041.1	0.4483
3049.85	0.4591
3058.6	0.4656
3067.35	0.4711
3076.1	0.4744
3084.85	0.4776
3093.6	0.4812
3102.35	0.4851
3111.09	0.4921
3119.84	0.5059
3128.59	0.5156
3137.34	0.5194
3146.09	0.5218
3154.84	0.5225
3163.59	0.5231
3172.34	0.5231
3181.09	0.523
3189.84	0.5229
3198.58	0.5219
3207.33	0.5207
3216.08	0.5195
3224.83	0.5182
3233.58	0.5169
3242.33	0.5157
3251.08	0.514
3259.83	0.5123
3268.58	0.5105
3277.33	0.5092
3286.07	0.5084
3294.82	0.5077
3303.57	0.5081
3312.32	0.5092
3321.07	0.5112
3329.82	0.513
3338.57	0.5134
3347.32	0.5134
3356.07	0.5124
3364.81	0.5115
3373.56	0.5084
3382.31	0.5054
3391.06	0.5028
3399.81	0.5009
3408.56	0.4992
3417.31	0.4982
3426.06	0.4973
3434.81	0.4964
3443.56	0.4962
3452.3	0.4958
3461.05	0.4955
3469.8	0.4952
3478.55	0.4949
3487.3	0.4946
3496.05	0.4944
3504.8	0.494
3513.55	0.4933
3522.3	0.4926
3531.05	0.492
3539.79	0.4912
3548.54	0.4905
3557.29	0.4899
3566.04	0.4891
3574.79	0.4883
3583.54	0.4875
3592.29	0.4867
3601.04	0.4857
3609.79	0.485
3618.54	0.4842
3627.28	0.4834
3636.03	0.4825
3644.78	0.4817
3653.53	0.481
3662.28	0.4801
3671.03	0.4792
3679.78	0.4782
3688.53	0.4772
3697.28	0.4762
3706.03	0.4752
3714.77	0.4742
3723.52	0.4731
3732.27	0.4721
3741.02	0.4711
3749.77	0.4702
3758.52	0.4692
3767.27	0.4682
3776.02	0.4671
3784.77	0.4659
3793.52	0.4646
3802.26	0.4634
3811.01	0.4622
3819.76	0.4609
3828.51	0.4596
3837.26	0.4584
3846.01	0.4572
3854.76	0.4559
3863.51	0.4547
3872.26	0.4535
3881.01	0.4522
3889.75	0.451
3898.5	0.4499
