Infrared Spectrum: 1,2-CYCLOBUTANE-DICARBOXIMIDE, N-ETHYL-4-DIMETHYLAMINO-3,3-DIMETHYL-
Formula: C12 H20 N2 O2
CAS: 91638-02-7
Class: COBLENTZ
Instrument: Not specified, most likely a prism, grating, or hybrid spectrometer.
Sampling: TRANSMISSION
Path length: SMEAR
Resolution: 4
Origin: TENNESSEE EASTMAN COMPANY, RESEARCH LABORATORIES
MICROMETERS	TRANSMITTANCE
2.034	0.914
2.07476	0.923
2.11551	0.923
2.15627	0.924
2.19702	0.928
2.23778	0.926
2.27854	0.909
2.31929	0.911
2.36005	0.914
2.40081	0.916
2.44156	0.919
2.48232	0.921
2.52307	0.924
2.56383	0.924
2.60459	0.926
2.64534	0.926
2.6861	0.931
2.72686	0.929
2.76761	0.912
2.80837	0.902
2.84912	0.9
2.88988	0.894
2.93064	0.83
2.97139	0.866
3.01215	0.885
3.05291	0.899
3.09366	0.9
3.13442	0.899
3.17517	0.899
3.21593	0.902
3.25669	0.899
3.29744	0.875
3.3382	0.652
3.37895	0.143
3.41971	0.396
3.46047	0.5
3.50122	0.562
3.54198	0.42
3.58274	0.482
3.62349	0.391
3.66425	0.717
3.705	0.823
3.74576	0.863
3.78652	0.823
3.82727	0.907
3.86803	0.914
3.90879	0.928
3.94954	0.928
3.9903	0.921
4.03105	0.929
4.07181	0.931
4.11257	0.938
4.15332	0.936
4.19408	0.936
4.23484	0.94
4.27559	0.931
4.31635	0.921
4.3571	0.926
4.39786	0.945
4.43862	0.95
4.47937	0.952
4.52013	0.952
4.56088	0.952
4.60164	0.953
4.6424	0.955
4.68315	0.953
4.72391	0.941
4.76467	0.94
4.80542	0.952
4.84618	0.952
4.88693	0.953
4.92769	0.955
4.96845	0.958
5.0092	0.967
5.04996	0.958
5.09072	0.962
5.13147	0.964
5.17223	0.955
5.21298	0.947
5.25374	0.952
5.2945	0.952
5.33525	0.945
5.37601	0.935
5.41676	0.935
5.45752	0.919
5.49828	0.9
5.53903	0.892
5.57979	0.849
5.62055	0.663
5.6613	0.198
5.70206	0.567
5.74281	0.558
5.78357	0.263
5.82433	0.051
5.86508	0.017
5.90584	0.023
5.9466	0.131
5.98735	0.305
6.02811	0.586
6.06886	0.671
6.10962	0.752
6.15038	0.8
6.19113	0.827
6.23189	0.863
6.27265	0.878
6.3134	0.88
6.35416	0.885
6.39491	0.878
6.43567	0.851
6.47643	0.847
6.51718	0.847
6.55794	0.834
6.59869	0.83
6.63945	0.829
6.68021	0.82
6.72096	0.75
6.76172	0.581
6.80248	0.246
6.84323	0.172
6.88399	0.239
6.92474	0.206
6.9655	0.485
7.00626	0.634
7.04701	0.586
7.08777	0.364
7.12853	0.117
7.16928	0.083
7.21004	0.2
7.25079	0.152
7.29155	0.152
7.33231	0.34
7.37306	0.2
7.41382	0.066
7.45458	0.068
7.49533	0.235
7.53609	0.499
7.57684	0.671
7.6176	0.752
7.65836	0.77
7.69911	0.76
7.73987	0.63
7.78062	0.429
7.82138	0.417
7.86214	0.504
7.90289	0.629
7.94365	0.661
7.98441	0.687
8.02516	0.748
8.06592	0.695
8.10667	0.441
8.14743	0.083
8.18819	0.078
8.22894	0.206
8.2697	0.451
8.31046	0.42
8.35121	0.487
8.39197	0.591
8.43272	0.668
8.47348	0.729
8.51424	0.748
8.55499	0.728
8.59575	0.625
8.63651	0.56
8.67726	0.538
8.71802	0.4
8.75877	0.319
8.79953	0.242
8.84029	0.292
8.88104	0.206
8.9218	0.136
8.96255	0.287
9.00331	0.439
9.04407	0.555
9.08482	0.6
9.12558	0.635
9.16634	0.668
9.20709	0.606
9.24785	0.475
9.2886	0.499
9.32936	0.538
9.37012	0.516
9.41087	0.605
9.45163	0.682
9.49239	0.709
9.53314	0.637
9.5739	0.55
9.61465	0.641
9.65541	0.747
9.69617	0.769
9.73692	0.714
9.77768	0.622
9.81844	0.654
9.85919	0.731
9.89995	0.743
9.9407	0.651
9.98146	0.461
10.0222	0.442
10.063	0.61
10.1037	0.692
10.1445	0.728
10.1852	0.753
10.226	0.765
10.2668	0.77
10.3075	0.801
10.3483	0.834
10.389	0.842
10.4298	0.818
10.4705	0.788
10.5113	0.798
10.552	0.818
10.5928	0.839
10.6336	0.859
10.6743	0.864
10.7151	0.87
10.7558	0.856
10.7966	0.817
10.8373	0.752
10.8781	0.723
10.9189	0.748
10.9596	0.743
11.0004	0.723
11.0411	0.495
11.0819	0.271
11.1226	0.4
11.1634	0.615
11.2041	0.757
11.2449	0.825
11.2857	0.844
11.3264	0.839
11.3672	0.811
11.4079	0.832
11.4487	0.864
11.4894	0.892
11.5302	0.9
11.571	0.907
11.6117	0.916
11.6525	0.923
11.6932	0.929
11.734	0.929
11.7747	0.928
11.8155	0.914
11.8562	0.907
11.897	0.892
11.9378	0.866
11.9785	0.817
12.0193	0.685
12.06	0.524
12.1008	0.598
12.1415	0.743
12.1823	0.825
12.2231	0.856
12.2638	0.868
12.3046	0.868
12.3453	0.866
12.3861	0.842
12.4268	0.798
12.4676	0.724
12.5083	0.586
12.5491	0.429
12.5899	0.394
12.6306	0.511
12.6714	0.637
12.7121	0.735
12.7529	0.789
12.7936	0.818
12.8344	0.834
12.8752	0.839
12.9159	0.846
12.9567	0.846
12.9974	0.844
13.0382	0.827
13.0789	0.823
13.1197	0.832
13.1604	0.851
13.2012	0.864
13.242	0.871
13.2827	0.873
13.3235	0.873
13.3642	0.873
13.405	0.87
13.4457	0.852
13.4865	0.842
13.5272	0.823
13.568	0.798
13.6088	0.772
13.6495	0.724
13.6903	0.682
13.731	0.627
13.7718	0.581
13.8125	0.529
13.8533	0.446
13.8941	0.381
13.9348	0.352
13.9756	0.386
14.0163	0.458
14.0571	0.545
14.0978	0.611
14.1386	0.658
14.1793	0.683
14.2201	0.694
14.2609	0.695
14.3016	0.678
14.3424	0.658
14.3831	0.656
14.4239	0.671
14.4646	0.685
14.5054	0.692
14.5462	0.702
14.5869	0.721
14.6277	0.74
14.6684	0.753
14.7092	0.765
14.7499	0.769
14.7907	0.774
14.8314	0.777
14.8722	0.779
14.913	0.777
14.9537	0.765
14.9945	0.76
15.0352	0.76
15.076	0.76
15.1167	0.758
15.1575	0.752
15.1983	0.75
15.239	0.743
15.2798	0.735
15.3205	0.733
15.3613	0.731
15.402	0.723
15.4428	0.721
15.4835	0.716
15.5243	0.702
15.5651	0.695
15.6058	0.682
15.6466	0.659
15.6873	0.641
15.7281	0.623
15.7688	0.61
15.8096	0.601
15.8504	0.6
15.8911	0.608
15.9319	0.618
15.9726	0.623
