Infrared Spectrum: CARBAMIC ACID, METHYL-, p-[2-(3-METHYLUREIDO)ETHYL]PHENYL ESTER
Formula: C12 H17 N3 O3
CAS: 91646-87-6
State: SOLID (1 mg / 650 mg KBr DISC)
Class: COBLENTZ III
Instrument: PERKIN-ELMER 221 (GRATING)
Instrument parameters: FILTER AT 980 CM^-^1. GRATING 4000-1428 CM^-^1, NaCl PRISM 1428-650 CM^-^1
Sampling: TRANSMISSION
Resolution: 2
Origin: SOUTHERN RESEARCH INSTITUTE
1/CM	TRANSMITTANCE
658.098	0.633
667.042	0.6361
675.986	0.6241
684.929	0.6163
693.873	0.6188
702.817	0.6454
711.761	0.6902
720.705	0.7242
729.648	0.7636
738.592	0.7722
747.536	0.7906
756.48	0.7839
765.423	0.7425
774.367	0.8262
783.311	0.862
792.255	0.8626
801.199	0.8497
810.142	0.7953
819.086	0.5965
828.03	0.6872
836.974	0.7925
845.918	0.7546
854.861	0.8721
863.805	0.85
872.749	0.701
881.693	0.8509
890.637	0.867
899.58	0.864
908.524	0.8592
917.468	0.8484
926.412	0.7997
935.355	0.7026
944.299	0.775
953.243	0.556
962.187	0.7796
971.131	0.8281
980.074	0.835
989.018	0.835
997.962	0.83
1006.91	0.7961
1015.85	0.6652
1024.79	0.7944
1033.74	0.819
1042.68	0.8138
1051.62	0.7958
1060.57	0.7229
1069.51	0.736
1078.46	0.75
1087.4	0.7121
1096.34	0.593
1105.29	0.6749
1114.23	0.725
1123.18	0.7023
1132.12	0.6791
1141.06	0.6463
1150.01	0.5174
1158.95	0.4071
1167.89	0.5343
1176.84	0.5906
1185.78	0.5533
1194.73	0.4232
1203.67	0.4138
1212.61	0.2265
1221.56	0.1541
1230.5	0.4068
1239.44	0.4431
1248.39	0.4023
1257.33	0.3744
1266.28	0.2439
1275.22	0.1643
1284.16	0.3096
1293.11	0.5046
1302.05	0.615
1310.99	0.6701
1319.94	0.68
1328.88	0.6594
1337.83	0.6928
1346.77	0.6801
1355.71	0.5774
1364.66	0.6581
1373.6	0.6733
1382.54	0.6524
1391.49	0.619
1400.43	0.5371
1409.38	0.3938
1418.32	0.6253
1427.26	0.639
1436.21	0.514
1445.15	0.6266
1454.1	0.6268
1463.04	0.5941
1471.98	0.54
1480.93	0.4936
1489.87	0.4298
1498.81	0.268
1507.76	0.2435
1516.7	0.401
1525.65	0.3802
1534.59	0.3386
1543.53	0.225
1552.48	0.181
1561.42	0.204
1570.36	0.1848
1579.31	0.1665
1588.25	0.2375
1597.2	0.3172
1606.14	0.2987
1615.08	0.2602
1624.03	0.2011
1632.97	0.132
1641.91	0.1982
1650.86	0.3707
1659.8	0.5031
1668.75	0.6089
1677.69	0.6046
1686.63	0.5616
1695.58	0.4744
1704.52	0.1131
1713.47	0.029
1722.41	0.1407
1731.35	0.3518
1740.3	0.4516
1749.24	0.5369
1758.18	0.6169
1767.13	0.6749
1776.07	0.7063
1785.02	0.7322
1793.96	0.7534
1802.9	0.774
1811.85	0.7952
1820.79	0.8157
1829.73	0.832
1838.68	0.8545
1847.62	0.858
1856.57	0.872
1865.51	0.876
1874.45	0.879
1883.4	0.8787
1892.34	0.8673
1901.28	0.8632
1910.23	0.8745
1919.17	0.8972
1928.12	0.9051
1937.06	0.909
1946	0.911
1954.95	0.9139
1963.89	0.914
1972.84	0.914
1981.78	0.913
1990.72	0.913
1999.67	0.913
2008.61	0.913
2017.55	0.9103
2026.5	0.91
2035.44	0.9097
2044.39	0.91
2053.33	0.91
2062.27	0.911
2071.22	0.914
2080.16	0.914
2089.1	0.914
2098.05	0.9147
2106.99	0.918
2115.94	0.9165
2124.88	0.915
2133.82	0.916
2142.77	0.915
2151.71	0.916
2160.65	0.916
2169.6	0.916
2178.54	0.9153
2187.49	0.9143
2196.43	0.9133
2205.37	0.9093
2214.32	0.91
2223.26	0.9137
2232.21	0.918
2241.15	0.92
2250.09	0.922
2259.04	0.922
2267.98	0.922
2276.92	0.923
2285.87	0.924
2294.81	0.924
2303.76	0.9223
2312.7	0.918
2321.64	0.9133
2330.59	0.909
2339.53	0.9107
2348.47	0.913
2357.42	0.914
2366.36	0.914
2375.31	0.9115
2384.25	0.911
2393.19	0.911
2402.14	0.9103
2411.08	0.9053
2420.02	0.905
2428.97	0.906
2437.91	0.906
2446.86	0.906
2455.8	0.908
2464.74	0.908
2473.69	0.908
2482.63	0.908
2491.57	0.904
2500.52	0.9013
2509.46	0.902
2518.41	0.8993
2527.35	0.899
2536.29	0.8963
2545.24	0.896
2554.18	0.896
2563.13	0.8935
2572.07	0.892
2581.01	0.892
2589.96	0.895
2598.9	0.8935
2607.84	0.892
2616.79	0.892
2625.73	0.89
2634.68	0.8853
2643.62	0.881
2652.56	0.879
2661.51	0.877
2670.45	0.8698
2679.39	0.867
2688.34	0.8623
2697.28	0.858
2706.23	0.8543
2715.17	0.853
2724.11	0.8575
2733.06	0.8583
2742	0.858
2750.94	0.855
2759.89	0.851
2768.83	0.846
2777.78	0.8338
2786.72	0.8228
2795.66	0.8008
2804.61	0.7738
2813.55	0.7657
2822.5	0.7727
2831.44	0.7753
2840.38	0.7671
2849.33	0.7303
2858.27	0.7187
2867.21	0.735
2876.16	0.7091
2885.1	0.6883
2894.05	0.688
2902.99	0.6575
2911.93	0.633
2920.88	0.5367
2929.82	0.509
2938.76	0.4894
2947.71	0.5069
2956.65	0.515
2965.6	0.6122
2974.54	0.7107
2983.48	0.72
2992.43	0.717
3001.37	0.7088
3010.31	0.6975
3019.26	0.697
3028.2	0.7005
3037.15	0.7067
3046.09	0.715
3055.03	0.7329
3063.98	0.7303
3072.92	0.7372
3081.87	0.745
3090.81	0.753
3099.75	0.757
3108.7	0.7563
3117.64	0.7475
3126.58	0.739
3135.53	0.736
3144.47	0.735
3153.42	0.735
3162.36	0.7343
3171.3	0.7275
3180.25	0.724
3189.19	0.7175
3198.13	0.7063
3207.08	0.6885
3216.02	0.6645
3224.97	0.6316
3233.91	0.5963
3242.85	0.5501
3251.8	0.4884
3260.74	0.4344
3269.68	0.3771
3278.63	0.3264
3287.57	0.2671
3296.52	0.2208
3305.46	0.1881
3314.4	0.1997
3323.35	0.2576
3332.29	0.3137
3341.24	0.323
3350.18	0.3153
3359.12	0.2693
3368.07	0.259
3377.01	0.2675
3385.95	0.2957
3394.9	0.3616
3403.84	0.4299
3412.79	0.4854
3421.73	0.5264
3430.67	0.5862
3439.62	0.6404
3448.56	0.6787
3457.5	0.7107
3466.45	0.7389
3475.39	0.7602
3484.34	0.7725
3493.28	0.7857
3502.22	0.7947
3511.17	0.8047
3520.11	0.813
3529.05	0.8155
3538	0.8245
3546.94	0.8327
3555.89	0.8397
3564.83	0.8497
3573.77	0.8557
3582.72	0.8637
3591.66	0.868
3600.6	0.8737
3609.55	0.877
3618.49	0.879
3627.44	0.882
3636.38	0.8897
3645.32	0.8923
3654.27	0.8945
3663.21	0.899
3672.16	0.8935
3681.1	0.896
3690.04	0.8997
3698.99	0.902
3707.93	0.902
3716.87	0.902
3725.82	0.901
3734.76	0.901
3743.71	0.9017
3752.65	0.904
3761.59	0.904
3770.54	0.905
3779.48	0.906
3788.42	0.906
3797.37	0.905
3806.31	0.905
3815.26	0.905
3824.2	0.904
3833.14	0.902
3842.09	0.902
3851.03	0.902
3859.97	0.901
3868.92	0.901
3877.86	0.901
3886.81	0.902
3895.75	0.904
3904.69	0.904
3913.64	0.905
3922.58	0.904
3931.53	0.904
3940.47	0.904
3949.41	0.904
3958.36	0.904
3967.3	0.904
3976.24	0.904
3985.19	0.904
3994.13	0.904
4003.08	0.904
4012.02	0.904
