Infrared Spectrum: P-METHOXY CARBANILIC ACID, n-BUTYL ESTER
Formula: C12 H17 N O3
CAS: 91644-88-1
State: SOLID (1.9 mg / 200 mg KBr)
Class: COBLENTZ
Instrument: Not specified, most likely a grating spectrometer.
Sampling: TRANSMISSION
Resolution: 4
Origin: CITRUS EXPERIMENT STATION, UNIVERSITY OF FLORIDA (G. EDWARDS)
MICROMETERS	TRANSMITTANCE
2.033	0.167
2.06614	0.167
2.09929	0.176
2.13243	0.179
2.16557	0.181
2.19872	0.183
2.23186	0.197
2.265	0.2
2.29815	0.208
2.33129	0.209
2.36444	0.21
2.39758	0.213
2.43072	0.224
2.46387	0.226
2.49701	0.237
2.53015	0.246
2.5633	0.253
2.59644	0.255
2.62958	0.249
2.66273	0.255
2.69587	0.258
2.72901	0.261
2.76216	0.261
2.7953	0.261
2.82844	0.262
2.86159	0.257
2.89473	0.242
2.92787	0.198
2.96102	0.106
2.99416	0.068
3.02731	0.132
3.06045	0.234
3.09359	0.286
3.12674	0.291
3.15988	0.293
3.19302	0.293
3.22617	0.283
3.25931	0.285
3.29245	0.277
3.3256	0.204
3.35874	0.119
3.39188	0.169
3.42503	0.228
3.45817	0.244
3.49131	0.289
3.52446	0.363
3.5576	0.374
3.59075	0.376
3.62389	0.387
3.65703	0.401
3.69018	0.408
3.72332	0.412
3.75646	0.419
3.78961	0.42
3.82275	0.424
3.85589	0.427
3.88904	0.428
3.92218	0.438
3.95532	0.446
3.98847	0.449
4.02161	0.444
4.05475	0.456
4.0879	0.468
4.12104	0.468
4.15418	0.466
4.18733	0.473
4.22047	0.489
4.25362	0.485
4.28676	0.489
4.3199	0.492
4.35305	0.492
4.38619	0.503
4.41933	0.506
4.45248	0.509
4.48562	0.51
4.51876	0.51
4.55191	0.519
4.58505	0.523
4.61819	0.526
4.65134	0.529
4.68448	0.531
4.71762	0.53
4.75077	0.529
4.78391	0.527
4.81706	0.523
4.8502	0.522
4.88334	0.53
4.91649	0.535
4.94963	0.546
4.98277	0.555
5.01592	0.558
5.04906	0.559
5.0822	0.561
5.11535	0.563
5.14849	0.567
5.18163	0.563
5.21478	0.566
5.24792	0.558
5.28106	0.551
5.31421	0.529
5.34735	0.55
5.38049	0.559
5.41364	0.559
5.44678	0.549
5.47993	0.535
5.51307	0.518
5.54621	0.515
5.57936	0.506
5.6125	0.478
5.64564	0.462
5.67879	0.387
5.71193	0.286
5.74507	0.194
5.77822	0.132
5.81136	0.059
5.8445	0.062
5.87765	0.078
5.91079	0.161
5.94393	0.27
5.97708	0.347
6.01022	0.388
6.04337	0.452
6.07651	0.448
6.10965	0.427
6.1428	0.37
6.17594	0.352
6.20908	0.339
6.24223	0.31
6.27537	0.454
6.30851	0.415
6.34166	0.314
6.3748	0.19
6.40794	0.047
6.44109	0.03
6.47423	0.03
6.50737	0.054
6.54052	0.124
6.57366	0.149
6.6068	0.25
6.63995	0.285
6.67309	0.339
6.70624	0.338
6.73938	0.279
6.77252	0.279
6.80567	0.281
6.83881	0.314
6.87195	0.338
6.9051	0.298
6.93824	0.415
6.97138	0.435
7.00453	0.338
7.03767	0.165
7.07081	0.245
7.10396	0.47
7.1371	0.527
7.17024	0.506
7.20339	0.506
7.23653	0.526
7.26968	0.542
7.30282	0.535
7.33596	0.503
7.36911	0.473
7.40225	0.461
7.43539	0.431
7.46854	0.404
7.50168	0.36
7.53482	0.339
7.56797	0.283
7.60111	0.253
7.63425	0.291
7.6674	0.301
7.70054	0.368
7.73368	0.393
7.76683	0.383
7.79997	0.342
7.83311	0.271
7.86626	0.159
7.8994	0.123
7.93255	0.079
7.96569	0.003
7.99883	0.002
8.03198	0.002
8.06512	0.002
8.09826	0.002
8.13141	0.005
8.16455	0.023
8.19769	0.061
8.23084	0.099
8.26398	0.175
8.29712	0.258
8.33027	0.36
8.36341	0.348
8.39655	0.238
8.4297	0.209
8.46284	0.254
8.49599	0.169
8.52913	0.298
8.56227	0.469
8.59542	0.519
8.62856	0.55
8.6617	0.559
8.69485	0.595
8.72799	0.615
8.76113	0.629
8.79428	0.615
8.82742	0.58
8.86056	0.574
8.89371	0.58
8.92685	0.587
8.95999	0.554
8.99314	0.493
9.02628	0.515
9.05942	0.604
9.09257	0.604
9.12571	0.561
9.15886	0.494
9.192	0.381
9.22514	0.225
9.25829	0.07
9.29143	0.025
9.32457	0.05
9.35772	0.106
9.39086	0.204
9.424	0.312
9.45715	0.409
9.49029	0.416
9.52343	0.387
9.55658	0.347
9.58972	0.335
9.62286	0.294
9.65601	0.193
9.68915	0.127
9.7223	0.169
9.75544	0.279
9.78858	0.4
9.82173	0.5
9.85487	0.518
9.88801	0.509
9.92116	0.594
9.9543	0.641
9.98744	0.677
10.0206	0.693
10.0537	0.701
10.0869	0.712
10.12	0.713
10.1532	0.71
10.1863	0.708
10.2194	0.718
10.2526	0.725
10.2857	0.728
10.3189	0.728
10.352	0.728
10.3852	0.729
10.4183	0.732
10.4515	0.737
10.4846	0.741
10.5177	0.748
10.5509	0.757
10.584	0.77
10.6172	0.781
10.6503	0.786
10.6835	0.787
10.7166	0.783
10.7497	0.771
10.7829	0.736
10.816	0.753
10.8492	0.797
10.8823	0.805
10.9155	0.805
10.9486	0.799
10.9817	0.798
11.0149	0.799
11.048	0.798
11.0812	0.805
11.1143	0.82
11.1475	0.824
11.1806	0.826
11.2138	0.827
11.2469	0.83
11.28	0.831
11.3132	0.827
11.3463	0.824
11.3795	0.824
11.4126	0.823
11.4458	0.822
11.4789	0.819
11.512	0.811
11.5452	0.809
11.5783	0.811
11.6115	0.811
11.6446	0.811
11.6778	0.811
11.7109	0.807
11.744	0.795
11.7772	0.789
11.8103	0.775
11.8435	0.751
11.8766	0.721
11.9098	0.681
11.9429	0.651
11.9761	0.576
12.0092	0.477
12.0423	0.346
12.0755	0.221
12.1086	0.094
12.1418	0.086
12.1749	0.187
12.2081	0.397
12.2412	0.542
12.2743	0.615
12.3075	0.698
12.3406	0.737
12.3738	0.74
12.4069	0.751
12.4401	0.771
12.4732	0.787
12.5064	0.79
12.5395	0.795
12.5726	0.797
12.6058	0.782
12.6389	0.769
12.6721	0.741
12.7052	0.701
12.7384	0.643
12.7715	0.546
12.8046	0.462
12.8378	0.449
12.8709	0.493
12.9041	0.503
12.9372	0.481
12.9704	0.472
13.0035	0.474
13.0366	0.511
13.0698	0.586
13.1029	0.651
13.1361	0.726
13.1692	0.774
13.2024	0.787
13.2355	0.795
13.2687	0.797
13.3018	0.793
13.3349	0.782
13.3681	0.759
13.4012	0.729
13.4344	0.694
13.4675	0.651
13.5007	0.614
13.5338	0.58
13.5669	0.579
13.6001	0.622
13.6332	0.661
13.6664	0.702
13.6995	0.721
13.7327	0.729
13.7658	0.738
13.7989	0.749
13.8321	0.758
13.8652	0.769
13.8984	0.782
13.9315	0.783
13.9647	0.783
13.9978	0.781
14.031	0.777
14.0641	0.769
14.0972	0.748
14.1304	0.732
14.1635	0.729
14.1967	0.741
14.2298	0.749
14.263	0.744
14.2961	0.736
14.3292	0.722
14.3624	0.713
14.3955	0.701
14.4287	0.681
14.4618	0.664
14.495	0.644
14.5281	0.62
14.5612	0.604
14.5944	0.591
14.6275	0.575
14.6607	0.562
14.6938	0.547
14.727	0.539
14.7601	0.531
14.7933	0.519
14.8264	0.515
14.8595	0.51
14.8927	0.498
14.9258	0.496
14.959	0.505
14.9921	0.506
