Infrared Spectrum: PYRROLIDINE, 1-(2,2,4-TRIMETHYL-3-OXOVALERYL)-
Formula: C12 H21 N O2
CAS: 91690-82-3
Boiling point: 134-136 C AT 2 mmHg
Class: COBLENTZ
Instrument: Not specified, most likely a prism, grating, or hybrid spectrometer.
Sampling: TRANSMISSION
Path length: SMEAR
Resolution: 4
Origin: TENNESSEE EASTMAN COMPANY, RESEARCH LABORATORIES
MICROMETERS	TRANSMITTANCE
2.041	0.998
2.08184	0.998
2.12267	0.998
2.16351	0.998
2.20434	0.998
2.24518	0.991
2.28601	0.97
2.32685	0.964
2.36768	0.976
2.40852	0.979
2.44935	0.977
2.49019	0.981
2.53102	0.991
2.57186	0.996
2.61269	0.996
2.65353	0.998
2.69436	0.998
2.7352	0.998
2.77603	0.996
2.81687	0.994
2.8577	0.991
2.89854	0.986
2.93937	0.974
2.98021	0.931
3.02104	0.936
3.06188	0.934
3.10271	0.895
3.14355	0.885
3.18438	0.904
3.22522	0.91
3.26605	0.895
3.30689	0.797
3.34772	0.335
3.38856	0.212
3.42939	0.328
3.47023	0.292
3.51106	0.63
3.5519	0.78
3.59273	0.828
3.63357	0.868
3.6744	0.893
3.71524	0.907
3.75607	0.921
3.79691	0.917
3.83774	0.922
3.87858	0.931
3.91941	0.934
3.96025	0.94
4.00109	0.945
4.04192	0.946
4.08276	0.948
4.12359	0.95
4.16443	0.95
4.20526	0.95
4.2461	0.95
4.28693	0.948
4.32777	0.943
4.3686	0.941
4.40944	0.95
4.45027	0.952
4.49111	0.953
4.53194	0.953
4.57278	0.953
4.61361	0.953
4.65445	0.957
4.69528	0.958
4.73612	0.958
4.77695	0.958
4.81779	0.958
4.85862	0.96
4.89946	0.96
4.94029	0.96
4.98113	0.962
5.02196	0.965
5.0628	0.965
5.10363	0.965
5.14447	0.962
5.1853	0.962
5.22614	0.96
5.26697	0.957
5.30781	0.957
5.34864	0.957
5.38948	0.957
5.43031	0.952
5.47115	0.945
5.51198	0.928
5.55282	0.912
5.59365	0.898
5.63449	0.869
5.67532	0.84
5.71616	0.801
5.75699	0.712
5.79783	0.508
5.83866	0.279
5.8795	0.164
5.92033	0.378
5.96117	0.486
6.00201	0.464
6.04284	0.386
6.08368	0.205
6.12451	0.065
6.16535	0.051
6.20618	0.162
6.24702	0.351
6.28785	0.527
6.32869	0.654
6.36952	0.695
6.41036	0.696
6.45119	0.707
6.49203	0.714
6.53286	0.722
6.5737	0.71
6.61453	0.672
6.65537	0.601
6.6962	0.537
6.73704	0.44
6.77787	0.27
6.81871	0.205
6.85954	0.255
6.90038	0.279
6.94121	0.296
6.98205	0.32
7.02288	0.255
7.06372	0.152
7.10455	0.109
7.14539	0.121
7.18622	0.224
7.22706	0.227
7.26789	0.186
7.30873	0.261
7.34956	0.243
7.3904	0.335
7.43123	0.38
7.47207	0.316
7.5129	0.417
7.55374	0.587
7.59457	0.64
7.63541	0.654
7.67624	0.681
7.71708	0.683
7.75791	0.681
7.79875	0.707
7.83958	0.715
7.88042	0.715
7.92126	0.686
7.96209	0.578
8.00293	0.544
8.04376	0.647
8.0846	0.664
8.12543	0.585
8.16627	0.522
8.2071	0.515
8.24794	0.491
8.28877	0.537
8.32961	0.503
8.37044	0.46
8.41128	0.422
8.45211	0.359
8.49295	0.368
8.53378	0.38
8.57462	0.335
8.61545	0.332
8.65629	0.381
8.69712	0.493
8.73796	0.583
8.77879	0.635
8.81963	0.664
8.86046	0.674
8.9013	0.671
8.94213	0.597
8.98297	0.566
9.0238	0.616
9.06464	0.631
9.10547	0.551
9.14631	0.465
9.18714	0.523
9.22798	0.647
9.26881	0.7
9.30965	0.72
9.35048	0.724
9.39132	0.719
9.43215	0.678
9.47299	0.618
9.51382	0.486
9.55466	0.349
9.59549	0.34
9.63633	0.335
9.67716	0.246
9.718	0.284
9.75883	0.416
9.79967	0.477
9.84051	0.46
9.88134	0.458
9.92218	0.479
9.96301	0.404
10.0038	0.337
10.0447	0.347
10.0855	0.481
10.1264	0.587
10.1672	0.609
10.208	0.582
10.2489	0.592
10.2897	0.66
10.3305	0.669
10.3714	0.633
10.4122	0.542
10.453	0.445
10.4939	0.421
10.5347	0.529
10.5755	0.636
10.6164	0.71
10.6572	0.753
10.698	0.772
10.7389	0.77
10.7797	0.731
10.8205	0.703
10.8614	0.707
10.9022	0.676
10.9431	0.64
10.9839	0.746
11.0247	0.808
11.0656	0.83
11.1064	0.83
11.1472	0.78
11.1881	0.755
11.2289	0.794
11.2697	0.82
11.3106	0.816
11.3514	0.779
11.3922	0.698
11.4331	0.628
11.4739	0.619
11.5147	0.66
11.5556	0.707
11.5964	0.751
11.6372	0.803
11.6781	0.816
11.7189	0.816
11.7598	0.806
11.8006	0.791
11.8414	0.787
11.8823	0.801
11.9231	0.823
11.9639	0.84
12.0048	0.854
12.0456	0.869
12.0864	0.875
12.1273	0.883
12.1681	0.892
12.2089	0.897
12.2498	0.9
12.2906	0.904
12.3314	0.904
12.3723	0.905
12.4131	0.905
12.454	0.905
12.4948	0.9
12.5356	0.895
12.5765	0.895
12.6173	0.893
12.6581	0.883
12.699	0.859
12.7398	0.83
12.7806	0.804
12.8215	0.799
12.8623	0.799
12.9031	0.813
12.944	0.835
12.9848	0.852
13.0256	0.863
13.0665	0.868
13.1073	0.869
13.1481	0.869
13.189	0.869
13.2298	0.869
13.2707	0.869
13.3115	0.869
13.3523	0.866
13.3932	0.861
13.434	0.854
13.4748	0.84
13.5157	0.828
13.5565	0.82
13.5973	0.804
13.6382	0.784
13.679	0.755
13.7198	0.722
13.7607	0.707
13.8015	0.703
13.8423	0.71
13.8832	0.729
13.924	0.751
13.9649	0.779
14.0057	0.791
14.0465	0.804
14.0874	0.808
14.1282	0.809
14.169	0.809
14.2099	0.811
14.2507	0.813
14.2915	0.811
14.3324	0.811
14.3732	0.809
14.414	0.809
14.4549	0.806
14.4957	0.804
14.5365	0.799
14.5774	0.796
14.6182	0.792
14.659	0.784
14.6999	0.78
14.7407	0.77
14.7816	0.763
14.8224	0.751
14.8632	0.741
14.9041	0.727
14.9449	0.708
14.9857	0.686
15.0266	0.659
15.0674	0.64
15.1082	0.626
15.1491	0.616
15.1899	0.613
15.2307	0.614
15.2716	0.614
15.3124	0.614
15.3532	0.614
15.3941	0.614
15.4349	0.614
15.4757	0.614
15.5166	0.613
15.5574	0.613
15.5983	0.613
15.6391	0.614
15.6799	0.614
15.7208	0.614
15.7616	0.614
15.8024	0.614
15.8433	0.614
15.8841	0.613
15.9249	0.606
15.9658	0.604
