Infrared Spectrum: M-NITRO CARBANILIC ACID, n-PROPYL ESTER
Formula: C10 H12 N2 O4
CAS: 91716-03-9
State: SOLID (1.4 mg / 200 mg KBr)
Class: COBLENTZ
Instrument: Not specified, most likely a grating spectrometer.
Sampling: TRANSMISSION
Resolution: 4
Origin: CITRUS EXPERIMENT STATION, UNIVERSITY OF FLORIDA (G. EDWARDS)
MICROMETERS	TRANSMITTANCE
2.04	0.541
2.07318	0.549
2.10635	0.557
2.13953	0.557
2.1727	0.56
2.20588	0.561
2.23906	0.565
2.27223	0.568
2.30541	0.572
2.33858	0.577
2.37176	0.581
2.40494	0.583
2.43811	0.585
2.47129	0.587
2.50446	0.6
2.53764	0.609
2.57082	0.615
2.60399	0.609
2.63717	0.617
2.67034	0.621
2.70352	0.627
2.7367	0.629
2.76987	0.624
2.80305	0.62
2.83622	0.611
2.8694	0.597
2.90258	0.508
2.93575	0.27
2.96893	0.428
3.0021	0.48
3.03528	0.533
3.06846	0.585
3.10163	0.597
3.13481	0.596
3.16798	0.577
3.20116	0.584
3.23434	0.595
3.26751	0.601
3.30069	0.585
3.33386	0.471
3.36704	0.42
3.40022	0.479
3.43339	0.517
3.46657	0.557
3.49974	0.615
3.53292	0.645
3.5661	0.645
3.59927	0.644
3.63245	0.663
3.66562	0.669
3.6988	0.672
3.73198	0.673
3.76515	0.675
3.79833	0.676
3.83151	0.68
3.86468	0.683
3.89786	0.685
3.93103	0.687
3.96421	0.689
3.99739	0.689
4.03056	0.692
4.06374	0.692
4.09691	0.692
4.13009	0.697
4.16327	0.7
4.19644	0.704
4.22962	0.713
4.26279	0.712
4.29597	0.711
4.32915	0.709
4.36232	0.709
4.3955	0.709
4.42867	0.711
4.46185	0.715
4.49503	0.716
4.5282	0.716
4.56138	0.717
4.59455	0.724
4.62773	0.725
4.66091	0.727
4.69408	0.732
4.72726	0.732
4.76043	0.733
4.79361	0.731
4.82679	0.732
4.85996	0.732
4.89314	0.731
4.92631	0.731
4.95949	0.732
4.99267	0.732
5.02584	0.732
5.05902	0.729
5.09219	0.736
5.12537	0.741
5.15855	0.741
5.19172	0.74
5.2249	0.735
5.25807	0.729
5.29125	0.729
5.32443	0.731
5.3576	0.731
5.39078	0.723
5.42395	0.712
5.45713	0.707
5.49031	0.697
5.52348	0.684
5.55666	0.661
5.58983	0.639
5.62301	0.605
5.65619	0.552
5.68936	0.462
5.72254	0.351
5.75571	0.229
5.78889	0.183
5.82207	0.234
5.85524	0.372
5.88842	0.439
5.92159	0.557
5.95477	0.589
5.98795	0.601
6.02112	0.588
6.0543	0.557
6.08747	0.523
6.12065	0.487
6.15383	0.501
6.187	0.5
6.22018	0.448
6.25335	0.442
6.28653	0.463
6.31971	0.356
6.35288	0.214
6.38606	0.149
6.41923	0.154
6.45241	0.218
6.48559	0.266
6.51876	0.347
6.55194	0.45
6.58511	0.49
6.61829	0.537
6.65147	0.537
6.68464	0.516
6.71782	0.49
6.75099	0.456
6.78417	0.513
6.81735	0.527
6.85052	0.532
6.8837	0.504
6.91687	0.442
6.95005	0.428
6.98323	0.555
7.0164	0.643
7.04958	0.663
7.08276	0.664
7.11593	0.663
7.14911	0.643
7.18228	0.613
7.21546	0.579
7.24864	0.521
7.28181	0.458
7.31499	0.267
7.34816	0.118
7.38134	0.085
7.41452	0.153
7.44769	0.241
7.48087	0.303
7.51404	0.312
7.54722	0.327
7.5804	0.419
7.61357	0.499
7.64675	0.521
7.67992	0.483
7.7131	0.351
7.74628	0.199
7.77945	0.284
7.81263	0.456
7.8458	0.561
7.87898	0.551
7.91216	0.492
7.94533	0.398
7.97851	0.294
8.01168	0.211
8.04486	0.115
8.07804	0.109
8.11121	0.158
8.14439	0.234
8.17756	0.336
8.21074	0.422
8.24392	0.492
8.27709	0.557
8.31027	0.604
8.34344	0.64
8.37662	0.661
8.4098	0.669
8.44297	0.681
8.47615	0.68
8.50932	0.669
8.5425	0.657
8.57568	0.657
8.60885	0.684
8.64203	0.699
8.6752	0.711
8.70838	0.713
8.74156	0.717
8.77473	0.724
8.80791	0.725
8.84108	0.725
8.87426	0.724
8.90744	0.721
8.94061	0.707
8.97379	0.657
9.00696	0.607
9.04014	0.552
9.07332	0.505
9.10649	0.443
9.13967	0.422
9.17284	0.42
9.20602	0.426
9.2392	0.458
9.27237	0.46
9.30555	0.402
9.33872	0.396
9.3719	0.462
9.40508	0.552
9.43825	0.621
9.47143	0.684
9.5046	0.695
9.53778	0.691
9.57096	0.66
9.60413	0.643
9.63731	0.689
9.67048	0.727
9.70366	0.76
9.73684	0.78
9.77001	0.79
9.80319	0.794
9.83636	0.796
9.86954	0.805
9.90272	0.805
9.93589	0.8
9.96907	0.786
10.0022	0.792
10.0354	0.812
10.0686	0.816
10.1018	0.824
10.1349	0.824
10.1681	0.824
10.2013	0.82
10.2345	0.82
10.2677	0.817
10.3008	0.816
10.334	0.814
10.3672	0.821
10.4004	0.826
10.4335	0.825
10.4667	0.813
10.4999	0.805
10.5331	0.793
10.5662	0.758
10.5994	0.72
10.6326	0.655
10.6658	0.587
10.6989	0.571
10.7321	0.607
10.7653	0.676
10.7985	0.728
10.8316	0.766
10.8648	0.766
10.898	0.764
10.9312	0.741
10.9643	0.703
10.9975	0.705
11.0307	0.728
11.0639	0.792
11.0971	0.808
11.1302	0.802
11.1634	0.781
11.1966	0.748
11.2298	0.696
11.2629	0.581
11.2961	0.478
11.3293	0.483
11.3625	0.681
11.3956	0.792
11.4288	0.829
11.462	0.849
11.4952	0.866
11.5283	0.876
11.5615	0.877
11.5947	0.885
11.6279	0.888
11.661	0.89
11.6942	0.89
11.7274	0.893
11.7606	0.893
11.7937	0.892
11.8269	0.89
11.8601	0.889
11.8933	0.877
11.9265	0.873
11.9596	0.86
11.9928	0.836
12.026	0.76
12.0592	0.652
12.0923	0.604
12.1255	0.696
12.1587	0.788
12.1919	0.828
12.225	0.849
12.2582	0.85
12.2914	0.85
12.3246	0.837
12.3577	0.806
12.3909	0.749
12.4241	0.672
12.4573	0.587
12.4904	0.547
12.5236	0.593
12.5568	0.723
12.59	0.808
12.6232	0.817
12.6563	0.812
12.6895	0.804
12.7227	0.786
12.7559	0.752
12.789	0.717
12.8222	0.669
12.8554	0.647
12.8886	0.621
12.9217	0.564
12.9549	0.492
12.9881	0.391
13.0213	0.407
13.0544	0.539
13.0876	0.655
13.1208	0.711
13.154	0.731
13.1871	0.762
13.2203	0.794
13.2535	0.793
13.2867	0.784
13.3198	0.766
13.353	0.724
13.3862	0.675
13.4194	0.655
13.4526	0.649
13.4857	0.611
13.5189	0.503
13.5521	0.387
13.5853	0.271
13.6184	0.292
13.6516	0.418
13.6848	0.579
13.718	0.685
13.7511	0.736
13.7843	0.781
13.8175	0.8
13.8507	0.818
13.8838	0.836
13.917	0.85
13.9502	0.854
13.9834	0.856
14.0165	0.856
14.0497	0.857
14.0829	0.862
14.1161	0.862
14.1492	0.862
14.1824	0.861
14.2156	0.861
14.2488	0.858
14.282	0.848
14.3151	0.842
14.3483	0.841
14.3815	0.824
14.4147	0.813
14.4478	0.8
14.481	0.777
14.5142	0.745
14.5474	0.697
14.5805	0.647
14.6137	0.601
14.6469	0.561
14.6801	0.547
14.7132	0.556
14.7464	0.575
14.7796	0.583
14.8128	0.576
14.8459	0.56
14.8791	0.548
14.9123	0.529
14.9455	0.527
14.9786	0.531
15.0118	0.544
15.045	0.544
