Infrared Spectrum: Alpha-(2,4-DINITROPHENYLAMINO) ADIPIC ACID
Formula: C12 H13 N3 O8
CAS: 91719-59-4
State: SOLID (NUJOL MULL)
Class: COBLENTZ
Instrument: PERKIN-ELMER
Sampling: TRANSMISSION
Resolution: 4
Origin: ABBOTT LABORATORIES - WASHBURN
MICROMETERS	TRANSMITTANCE
2.035	0.425
2.0748	0.445
2.1146	0.4479
2.15439	0.4598
2.19419	0.4659
2.23399	0.475
2.27379	0.488
2.31359	0.493
2.35338	0.4912
2.39318	0.4958
2.43298	0.504
2.47278	0.5179
2.51258	0.5242
2.55238	0.5391
2.59217	0.5588
2.63197	0.569
2.67177	0.577
2.71157	0.5891
2.75137	0.592
2.79116	0.5871
2.83096	0.579
2.87076	0.5741
2.91056	0.5619
2.95036	0.5409
2.99015	0.4648
3.02995	0.286
3.06975	0.3788
3.10955	0.3817
3.14935	0.3499
3.18915	0.3161
3.22894	0.284
3.26874	0.246
3.30854	0.2499
3.34834	0.2307
3.38814	0.1444
3.42793	0.117
3.46773	0.114
3.50753	0.115
3.54733	0.1523
3.58713	0.2584
3.62692	0.321
3.66672	0.3409
3.70652	0.3461
3.74632	0.352
3.78612	0.354
3.82592	0.359
3.86571	0.36
3.90551	0.36
3.94531	0.3671
3.98511	0.3798
4.02491	0.399
4.0647	0.4119
4.1045	0.4202
4.1443	0.437
4.1841	0.4576
4.2239	0.4809
4.26369	0.4949
4.30349	0.5081
4.34329	0.538
4.38309	0.5586
4.42289	0.567
4.46269	0.5819
4.50248	0.5859
4.54228	0.554
4.58208	0.5901
4.62188	0.6089
4.66168	0.6169
4.70147	0.625
4.74127	0.63
4.78107	0.6399
4.82087	0.644
4.86067	0.64
4.90046	0.64
4.94026	0.639
4.98006	0.6402
5.01986	0.639
5.05966	0.637
5.09946	0.634
5.13925	0.624
5.17905	0.622
5.21885	0.624
5.25865	0.62
5.29845	0.62
5.33824	0.6201
5.37804	0.6201
5.41784	0.6238
5.45764	0.6298
5.49744	0.647
5.53723	0.6453
5.57703	0.6326
5.61683	0.6055
5.65663	0.5528
5.69643	0.4399
5.73623	0.3181
5.77602	0.2524
5.81582	0.144
5.85562	0.129
5.89542	0.1486
5.93522	0.24
5.97501	0.3203
6.01481	0.336
6.05461	0.339
6.09441	0.3219
6.13421	0.1795
6.174	0.1303
6.2138	0.1488
6.2536	0.177
6.2934	0.135
6.3332	0.1794
6.373	0.313
6.41279	0.3898
6.45259	0.3893
6.49239	0.3296
6.53219	0.2117
6.57199	0.158
6.61178	0.1671
6.65158	0.182
6.69138	0.231
6.73118	0.3329
6.77098	0.3379
6.81077	0.1869
6.85057	0.1387
6.89037	0.1392
6.93017	0.1529
6.96997	0.172
7.00977	0.173
7.04956	0.172
7.08936	0.1682
7.12916	0.2325
7.16896	0.3128
7.20876	0.3363
7.24855	0.2533
7.28835	0.2001
7.32815	0.182
7.36795	0.213
7.40775	0.2192
7.44754	0.1373
7.48734	0.125
7.52714	0.127
7.56694	0.1303
7.60674	0.152
7.64654	0.165
7.68633	0.144
7.72613	0.142
7.76593	0.14
7.80573	0.1446
7.84553	0.1494
7.88532	0.152
7.92512	0.1515
7.96492	0.1503
8.00472	0.16
8.04452	0.163
8.08431	0.171
8.12411	0.2091
8.16391	0.2538
8.20371	0.3001
8.24351	0.309
8.28331	0.2856
8.3231	0.259
8.3629	0.3122
8.4027	0.3598
8.4425	0.3473
8.4823	0.2904
8.52209	0.2172
8.56189	0.193
8.60169	0.2646
8.64149	0.3351
8.68129	0.3164
8.72108	0.2374
8.76088	0.2234
8.80068	0.236
8.84048	0.2436
8.88028	0.3122
8.92008	0.3386
8.95987	0.2806
8.99967	0.215
9.03947	0.2581
9.07927	0.3516
9.11907	0.423
9.15886	0.4752
9.19866	0.4944
9.23846	0.508
9.27826	0.501
9.31806	0.4824
9.35785	0.4632
9.39765	0.3969
9.43745	0.3707
9.47725	0.4021
9.51705	0.4052
9.55684	0.4659
9.59664	0.5022
9.63644	0.5232
9.67624	0.5371
9.71604	0.544
9.75584	0.546
9.79563	0.5388
9.83543	0.538
9.87523	0.543
9.91503	0.546
9.95483	0.5464
9.99462	0.538
10.0344	0.5316
10.0742	0.524
10.114	0.5022
10.1538	0.4893
10.1936	0.468
10.2334	0.4509
10.2732	0.4379
10.313	0.4271
10.3528	0.41
10.3926	0.402
10.4324	0.4026
10.4722	0.4125
10.512	0.4224
10.5518	0.4337
10.5916	0.4502
10.6314	0.456
10.6712	0.46
10.711	0.4501
10.7508	0.4133
10.7906	0.3399
10.8304	0.2968
10.8702	0.3107
10.91	0.3888
10.9498	0.4371
10.9896	0.4786
11.0294	0.504
11.0692	0.5207
11.109	0.5325
11.1488	0.538
11.1886	0.5368
11.2284	0.538
11.2682	0.538
11.308	0.5416
11.3478	0.546
11.3876	0.546
11.4274	0.546
11.4672	0.5281
11.507	0.526
11.5468	0.526
11.5865	0.5351
11.6263	0.538
11.6661	0.5438
11.7059	0.5488
11.7457	0.5477
11.7855	0.541
11.8253	0.5411
11.8651	0.5364
11.9049	0.5141
11.9447	0.4717
11.9845	0.4235
12.0243	0.4354
12.0641	0.4635
12.1039	0.4456
12.1437	0.4044
12.1835	0.3496
12.2233	0.34
12.2631	0.4381
12.3029	0.5071
12.3427	0.547
12.3825	0.5715
12.4223	0.58
12.4621	0.5878
12.5019	0.591
12.5417	0.5889
12.5815	0.584
12.6213	0.5701
12.6611	0.5508
12.7009	0.5181
12.7407	0.4866
12.7805	0.4567
12.8203	0.445
12.8601	0.433
12.8999	0.4454
12.9397	0.4761
12.9795	0.5005
13.0193	0.5083
13.0591	0.4755
13.0989	0.4749
13.1387	0.5291
13.1785	0.5595
13.2183	0.566
13.2581	0.5638
13.2979	0.546
13.3377	0.4792
13.3775	0.3214
13.4173	0.2528
13.4571	0.2594
13.4969	0.422
13.5367	0.4781
13.5765	0.5094
13.6163	0.521
13.6561	0.521
13.6958	0.5111
13.7356	0.4968
13.7754	0.4506
13.8152	0.4004
13.855	0.356
13.8948	0.349
13.9346	0.363
13.9744	0.3988
14.0142	0.4375
14.054	0.4763
14.0938	0.5108
14.1336	0.527
14.1734	0.5453
14.2132	0.5516
14.253	0.559
14.2928	0.5567
14.3326	0.5504
14.3724	0.5456
14.4122	0.544
14.452	0.544
14.4918	0.543
14.5316	0.5454
14.5714	0.543
14.6112	0.538
14.651	0.533
14.6908	0.5254
14.7306	0.5137
14.7704	0.4997
14.8102	0.48
14.85	0.4615
14.8898	0.4455
14.9296	0.4387
14.9694	0.4283
15.0092	0.422
15.049	0.422
15.0888	0.4235
15.1286	0.428
15.1684	0.43
15.2082	0.4271
15.248	0.4253
15.2878	0.4187
15.3276	0.4124
15.3674	0.4039
15.4072	0.3963
15.447	0.3803
