Infrared Spectrum: 4-P-METHOXYANILINO-6-METHYL-1,3,3a,7-TETRAZAINDENE
Formula: C13 H13 N5 O
CAS: 91769-08-3
State: SOLID (KBr PRESSING)
Melting point: 211 C
Class: COBLENTZ
Instrument: Not specified, most likely a prism, grating, or hybrid spectrometer.
Sampling: TRANSMISSION
Resolution: 4
Origin: EASTMAN KODAK COMPANY, RESEARCH LABORATORIES, ROCHESTER, N.Y.
MICROMETERS	TRANSMITTANCE
2.041	0.309
2.07626	0.309
2.11152	0.308
2.14678	0.309
2.18204	0.316
2.2173	0.32
2.25256	0.32
2.28782	0.316
2.32308	0.32
2.35834	0.325
2.3936	0.332
2.42886	0.341
2.46412	0.341
2.49938	0.345
2.53464	0.352
2.5699	0.355
2.60516	0.359
2.64042	0.362
2.67568	0.38
2.71094	0.381
2.7462	0.388
2.78146	0.392
2.81672	0.373
2.85198	0.352
2.88724	0.346
2.9225	0.341
2.95776	0.343
2.99302	0.343
3.02828	0.304
3.06354	0.218
3.0988	0.089
3.13406	0.075
3.16932	0.15
3.20458	0.19
3.23984	0.18
3.2751	0.206
3.31036	0.239
3.34562	0.227
3.38088	0.266
3.41614	0.217
3.4514	0.25
3.48666	0.301
3.52192	0.315
3.55718	0.302
3.59244	0.355
3.6277	0.38
3.66296	0.388
3.69822	0.409
3.73348	0.425
3.76874	0.429
3.804	0.446
3.83926	0.457
3.87452	0.465
3.90978	0.485
3.94504	0.478
3.9803	0.497
4.01556	0.506
4.05082	0.516
4.08608	0.521
4.12134	0.535
4.1566	0.56
4.19186	0.567
4.22712	0.565
4.26239	0.563
4.29765	0.583
4.33291	0.602
4.36817	0.611
4.40343	0.628
4.43869	0.63
4.47395	0.633
4.50921	0.621
4.54447	0.541
4.57973	0.555
4.61499	0.609
4.65025	0.649
4.68551	0.665
4.72077	0.669
4.75603	0.684
4.79129	0.683
4.82655	0.67
4.86181	0.653
4.89707	0.661
4.93233	0.681
4.96759	0.702
5.00285	0.711
5.03811	0.73
5.07337	0.751
5.10863	0.76
5.14389	0.742
5.17915	0.753
5.21441	0.761
5.24967	0.712
5.28493	0.763
5.32019	0.814
5.35545	0.8
5.39071	0.712
5.42597	0.821
5.46123	0.826
5.49649	0.851
5.53175	0.87
5.56701	0.866
5.60227	0.87
5.63753	0.866
5.67279	0.891
5.70805	0.898
5.74331	0.891
5.77857	0.891
5.81383	0.87
5.84909	0.831
5.88435	0.782
5.91961	0.721
5.95487	0.611
5.99013	0.444
6.02539	0.25
6.06065	0.178
6.09591	0.091
6.13117	0.029
6.16643	0.021
6.20169	0.019
6.23695	0.017
6.27221	0.015
6.30747	0.015
6.34273	0.022
6.37799	0.057
6.41325	0.119
6.44851	0.222
6.48377	0.255
6.51903	0.32
6.55429	0.25
6.58955	0.07
6.62481	0.04
6.66007	0.04
6.69533	0.082
6.73059	0.141
6.76585	0.19
6.80111	0.157
6.83637	0.091
6.87163	0.098
6.90689	0.075
6.94215	0.028
6.97741	0.043
7.01267	0.105
7.04793	0.159
7.08319	0.234
7.11845	0.292
7.15371	0.322
7.18897	0.413
7.22423	0.448
7.25949	0.492
7.29475	0.492
7.33001	0.381
7.36527	0.472
7.40053	0.56
7.43579	0.443
7.47105	0.147
7.50631	0.155
7.54157	0.311
7.57683	0.364
7.61209	0.301
7.64735	0.12
7.68261	0.059
7.71787	0.08
7.75313	0.166
7.78839	0.276
7.82365	0.322
7.85891	0.352
7.89417	0.373
7.92943	0.155
7.96469	0.024
7.99995	0.022
8.03521	0.031
8.07047	0.05
8.10573	0.092
8.14099	0.131
8.17625	0.049
8.21151	0.08
8.24677	0.234
8.28203	0.274
8.31729	0.084
8.35255	0.042
8.38781	0.103
8.42307	0.141
8.45833	0.168
8.49359	0.068
8.52885	0.113
8.56411	0.131
8.59938	0.217
8.63464	0.266
8.6699	0.302
8.70516	0.33
8.74042	0.352
8.77568	0.366
8.81094	0.383
8.8462	0.378
8.88146	0.341
8.91672	0.299
8.95198	0.352
8.98724	0.285
9.0225	0.313
9.05776	0.402
9.09302	0.436
9.12828	0.465
9.16354	0.478
9.1988	0.492
9.23406	0.506
9.26932	0.511
9.30458	0.523
9.33984	0.53
9.3751	0.534
9.41036	0.544
9.44562	0.551
9.48088	0.546
9.51614	0.523
9.5514	0.488
9.58666	0.362
9.62192	0.133
9.65718	0.092
9.69244	0.171
9.7277	0.273
9.76296	0.352
9.79822	0.394
9.83348	0.402
9.86874	0.401
9.904	0.334
9.93926	0.35
9.97452	0.411
10.0098	0.446
10.045	0.474
10.0803	0.493
10.1156	0.521
10.1508	0.542
10.1861	0.565
10.2213	0.572
10.2566	0.588
10.2919	0.602
10.3271	0.614
10.3624	0.619
10.3976	0.625
10.4329	0.6
10.4682	0.381
10.5034	0.474
10.5387	0.59
10.5739	0.595
10.6092	0.567
10.6445	0.604
10.6797	0.623
10.715	0.534
10.7502	0.332
10.7855	0.443
10.8208	0.612
10.856	0.663
10.8913	0.684
10.9265	0.705
10.9618	0.716
10.9971	0.728
11.0323	0.733
11.0676	0.746
11.1028	0.753
11.1381	0.763
11.1734	0.77
11.2086	0.772
11.2439	0.774
11.2791	0.775
11.3144	0.774
11.3497	0.772
11.3849	0.767
11.4202	0.763
11.4554	0.744
11.4907	0.674
11.526	0.535
11.5612	0.488
11.5965	0.614
11.6317	0.672
11.667	0.677
11.7023	0.639
11.7375	0.525
11.7728	0.425
11.808	0.451
11.8433	0.516
11.8786	0.504
11.9138	0.401
11.9491	0.231
11.9843	0.222
12.0196	0.357
12.0549	0.474
12.0901	0.563
12.1254	0.586
12.1606	0.516
12.1959	0.323
12.2312	0.241
12.2664	0.434
12.3017	0.565
12.3369	0.623
12.3722	0.647
12.4075	0.663
12.4427	0.665
12.478	0.647
12.5132	0.548
12.5485	0.376
12.5838	0.222
12.619	0.43
12.6543	0.586
12.6895	0.635
12.7248	0.633
12.7601	0.584
12.7953	0.499
12.8306	0.341
12.8658	0.182
12.9011	0.159
12.9364	0.159
12.9716	0.338
13.0069	0.465
13.0421	0.604
13.0774	0.637
13.1127	0.663
13.1479	0.674
13.1832	0.691
13.2184	0.716
13.2537	0.723
13.289	0.73
13.3242	0.73
13.3595	0.695
13.3947	0.588
13.43	0.423
13.4653	0.402
13.5005	0.576
13.5358	0.663
13.571	0.712
13.6063	0.732
13.6416	0.744
13.6768	0.754
13.7121	0.761
13.7473	0.763
13.7826	0.768
13.8179	0.775
13.8531	0.775
13.8884	0.775
13.9236	0.775
13.9589	0.77
13.9942	0.767
14.0294	0.765
14.0647	0.76
14.0999	0.751
14.1352	0.733
14.1705	0.711
14.2057	0.683
14.241	0.676
14.2762	0.704
14.3115	0.73
14.3468	0.749
14.382	0.754
14.4173	0.758
14.4525	0.761
14.4878	0.756
14.5231	0.751
14.5583	0.744
14.5936	0.714
14.6288	0.663
14.6641	0.542
14.6994	0.432
14.7346	0.432
14.7699	0.551
14.8051	0.616
14.8404	0.633
14.8757	0.63
14.9109	0.586
14.9462	0.542
14.9814	0.555
15.0167	0.595
15.052	0.604
15.0872	0.583
15.1225	0.555
15.1578	0.541
15.193	0.527
15.2283	0.513
15.2635	0.502
15.2988	0.5
15.3341	0.5
15.3693	0.492
15.4046	0.485
15.4398	0.479
15.4751	0.469
15.5104	0.451
15.5456	0.439
15.5809	0.422
15.6161	0.406
15.6514	0.399
15.6867	0.402
15.7219	0.422
15.7572	0.446
15.7924	0.476
15.8277	0.504
15.863	0.521
15.8982	0.535
15.9335	0.544
15.9687	0.549
16.004	0.553
