Infrared Spectrum: DIETHYL DODECYL PHOSPHATE
Formula: C16 H35 O4 P
CAS: 91776-68-0
State: LIQUID
Class: COBLENTZ
Instrument: PERKIN-ELMER
Sampling: TRANSMISSION
Path length: SMEAR
Resolution: 4
MICROMETERS	TRANSMITTANCE
2.025	0.926
2.06176	0.923
2.09851	0.921
2.13527	0.921
2.17203	0.921
2.20879	0.918
2.24554	0.921
2.2823	0.915
2.31906	0.892
2.35581	0.901
2.39257	0.901
2.42933	0.903
2.46609	0.906
2.50284	0.912
2.5396	0.912
2.57636	0.915
2.61312	0.921
2.64987	0.921
2.68663	0.921
2.72339	0.917
2.76014	0.889
2.7969	0.856
2.83366	0.805
2.87042	0.793
2.90717	0.791
2.94393	0.822
2.98069	0.849
3.01744	0.88
3.0542	0.888
3.09096	0.894
3.12772	0.897
3.16447	0.903
3.20123	0.909
3.23799	0.911
3.27474	0.906
3.3115	0.886
3.34826	0.774
3.38502	0.457
3.42177	0.271
3.45853	0.243
3.49529	0.459
3.53204	0.372
3.5688	0.796
3.60556	0.857
3.64232	0.882
3.67907	0.892
3.71583	0.9
3.75259	0.909
3.78935	0.917
3.8261	0.918
3.86286	0.92
3.89962	0.92
3.93637	0.929
3.97313	0.929
4.00989	0.932
4.04665	0.935
4.0834	0.928
4.12016	0.932
4.15692	0.931
4.19367	0.931
4.23043	0.929
4.26719	0.938
4.30395	0.941
4.3407	0.935
4.37746	0.934
4.41422	0.931
4.45097	0.929
4.48773	0.929
4.52449	0.931
4.56125	0.931
4.598	0.926
4.63476	0.929
4.67152	0.929
4.70827	0.928
4.74503	0.928
4.78179	0.923
4.81855	0.921
4.8553	0.923
4.89206	0.924
4.92882	0.92
4.96558	0.921
5.00233	0.918
5.03909	0.924
5.07585	0.92
5.1126	0.921
5.14936	0.918
5.18612	0.917
5.22288	0.915
5.25963	0.911
5.29639	0.906
5.33315	0.903
5.3699	0.901
5.40666	0.905
5.44342	0.906
5.48018	0.914
5.51693	0.911
5.55369	0.908
5.59045	0.905
5.6272	0.898
5.66396	0.898
5.70072	0.894
5.73748	0.892
5.77423	0.897
5.81099	0.903
5.84775	0.915
5.8845	0.914
5.92126	0.909
5.95802	0.909
5.99478	0.898
6.03153	0.885
6.06829	0.879
6.10505	0.877
6.14181	0.875
6.17856	0.883
6.21532	0.897
6.25208	0.901
6.28883	0.911
6.32559	0.905
6.36235	0.909
6.39911	0.911
6.43586	0.911
6.47262	0.912
6.50938	0.911
6.54613	0.903
6.58289	0.905
6.61965	0.889
6.65641	0.888
6.69316	0.866
6.72992	0.794
6.76668	0.727
6.80343	0.601
6.84019	0.607
6.87695	0.667
6.91371	0.679
6.95046	0.748
6.98722	0.799
7.02398	0.831
7.06073	0.849
7.09749	0.84
7.13425	0.787
7.17101	0.684
7.20776	0.744
7.24452	0.764
7.28128	0.744
7.31804	0.765
7.35479	0.823
7.39155	0.831
7.42831	0.84
7.46506	0.84
7.50182	0.843
7.53858	0.836
7.57534	0.817
7.61209	0.779
7.64885	0.712
7.68561	0.635
7.72236	0.511
7.75912	0.418
7.79588	0.343
7.83264	0.298
7.86939	0.289
7.90615	0.266
7.94291	0.318
7.97966	0.424
8.01642	0.508
8.05318	0.604
8.08994	0.676
8.12669	0.738
8.16345	0.773
8.20021	0.793
8.23697	0.799
8.27372	0.81
8.31048	0.817
8.34724	0.819
8.38399	0.817
8.42075	0.81
8.45751	0.799
8.49427	0.761
8.53102	0.69
8.56778	0.612
8.60454	0.647
8.64129	0.695
8.67805	0.745
8.71481	0.764
8.75157	0.768
8.78832	0.765
8.82508	0.759
8.86184	0.751
8.89859	0.742
8.93535	0.738
8.97211	0.716
9.00887	0.673
9.04562	0.609
9.08238	0.56
9.11914	0.549
9.15589	0.545
9.19265	0.523
9.22941	0.486
9.26617	0.453
9.30292	0.424
9.33968	0.401
9.37644	0.359
9.4132	0.301
9.44995	0.237
9.48671	0.179
9.52347	0.11
9.56022	0.079
9.59698	0.065
9.63374	0.038
9.6705	0.032
9.70725	0.032
9.74401	0.042
9.78077	0.067
9.81752	0.09
9.85428	0.104
9.89104	0.162
9.9278	0.208
9.96455	0.251
10.0013	0.294
10.0381	0.324
10.0748	0.333
10.1116	0.316
10.1483	0.292
10.1851	0.264
10.2219	0.249
10.2586	0.254
10.2954	0.272
10.3321	0.304
10.3689	0.347
10.4056	0.372
10.4424	0.395
10.4792	0.428
10.5159	0.46
10.5527	0.497
10.5894	0.543
10.6262	0.591
10.6629	0.63
10.6997	0.675
10.7365	0.721
10.7732	0.758
10.81	0.777
10.8467	0.796
10.8835	0.808
10.9202	0.814
10.957	0.819
10.9938	0.831
11.0305	0.836
11.0673	0.834
11.104	0.837
11.1408	0.837
11.1775	0.833
11.2143	0.825
11.2511	0.822
11.2878	0.817
11.3246	0.817
11.3613	0.813
11.3981	0.797
11.4348	0.791
11.4716	0.779
11.5084	0.771
11.5451	0.764
11.5819	0.762
11.6186	0.756
11.6554	0.753
11.6921	0.756
11.7289	0.754
11.7657	0.751
11.8024	0.751
11.8392	0.745
11.8759	0.741
11.9127	0.735
11.9494	0.725
11.9862	0.722
12.023	0.719
12.0597	0.707
12.0965	0.689
12.1332	0.663
12.17	0.641
12.2067	0.629
12.2435	0.63
12.2803	0.641
12.317	0.65
12.3538	0.653
12.3905	0.647
12.4273	0.643
12.464	0.635
12.5008	0.641
12.5376	0.65
12.5743	0.687
12.6111	0.716
12.6478	0.747
12.6846	0.761
12.7213	0.77
12.7581	0.777
12.7949	0.782
12.8316	0.788
12.8684	0.791
12.9051	0.793
12.9419	0.791
12.9786	0.794
13.0154	0.785
13.0522	0.781
13.0889	0.771
13.1257	0.768
13.1624	0.762
13.1992	0.756
13.2359	0.747
13.2727	0.741
13.3095	0.739
13.3462	0.742
13.383	0.736
13.4197	0.736
13.4565	0.735
13.4932	0.738
13.53	0.741
13.5668	0.744
13.6035	0.745
13.6403	0.747
13.677	0.744
13.7138	0.742
13.7505	0.738
13.7873	0.727
13.8241	0.716
13.8608	0.712
13.8976	0.712
13.9343	0.727
13.9711	0.742
14.0078	0.758
14.0446	0.767
14.0814	0.776
14.1181	0.782
14.1549	0.787
14.1916	0.793
14.2284	0.794
14.2651	0.799
14.3019	0.8
14.3387	0.799
14.3754	0.802
14.4122	0.793
14.4489	0.796
14.4857	0.802
14.5224	0.797
14.5592	0.797
14.596	0.793
14.6327	0.79
14.6695	0.791
14.7062	0.782
14.743	0.779
14.7797	0.777
14.8165	0.773
14.8533	0.774
14.89	0.77
14.9268	0.77
14.9635	0.77
15.0003	0.768
15.037	0.765
15.0738	0.759
15.1106	0.747
15.1473	0.747
15.1841	0.745
