Infrared Spectrum: (4R,5S)-(+)-4-Methyl-5-phenyl-1,3-oxazolidine-2-thione
Formula: C 10 H 11 N O S
CAS: 91794-28-4
State: gas
Origin: EPA-IR VAPOR PHASE LIBRARY
1/CM	ABSORBANCE
549.8	0.007662
559.445	0.007812
569.09	0.007682
578.734	0.007182
588.379	0.006382
598.024	0.004962
607.669	0.004302
617.313	0.003502
626.958	0.003372
636.603	0.003162
646.248	0.002742
655.893	0.003712
665.537	0.004472
675.182	0.005432
684.827	0.010142
694.472	0.021442
704.116	0.021802
713.761	0.012402
723.406	0.010822
733.051	0.012542
742.695	0.014862
752.34	0.013262
761.985	0.007182
771.63	0.003562
781.275	0.003112
790.919	0.002922
800.564	0.002722
810.209	0.003382
819.854	0.003622
829.498	0.003472
839.143	0.003142
848.788	0.003042
858.433	0.003152
868.078	0.003402
877.722	0.003752
887.367	0.004072
897.012	0.004912
906.657	0.007692
916.301	0.010382
925.946	0.009592
935.591	0.008882
945.236	0.013632
954.88	0.018162
964.525	0.020692
974.17	0.028202
983.815	0.030222
993.46	0.018892
1003.1	0.011502
1012.75	0.009542
1022.39	0.011022
1032.04	0.012602
1041.68	0.014462
1051.33	0.018012
1060.97	0.015842
1070.62	0.018082
1080.26	0.026922
1089.91	0.033042
1099.55	0.025312
1109.2	0.017372
1118.84	0.014232
1128.49	0.012502
1138.13	0.014682
1147.78	0.023992
1157.42	0.045912
1167.07	0.079262
1176.71	0.082532
1186.36	0.058692
1196	0.035422
1205.64	0.026042
1215.29	0.025202
1224.93	0.028382
1234.58	0.040412
1244.22	0.048792
1253.87	0.039772
1263.51	0.033882
1273.16	0.049892
1282.8	0.055462
1292.45	0.032362
1302.09	0.020092
1311.74	0.021312
1321.38	0.030752
1331.03	0.041572
1340.67	0.036692
1350.32	0.021482
1359.96	0.013702
1369.61	0.011612
1379.25	0.012792
1388.9	0.013462
1398.54	0.009932
1408.18	0.009092
1417.83	0.012192
1427.47	0.021722
1437.12	0.049182
1446.76	0.090292
1456.41	0.116912
1466.05	0.149032
1475.7	0.103882
1485.34	0.040752
1494.99	0.023462
1504.63	0.014412
1514.28	0.007692
1523.92	0.005472
1533.57	0.004742
1543.21	0.004112
1552.86	0.003712
1562.5	0.003202
1572.15	0.002862
1581.79	0.002612
1591.44	0.002942
1601.08	0.003242
1610.73	0.002922
1620.37	0.001892
1630.01	0.001582
1639.66	0.001482
1649.3	0.001522
1658.95	0.001702
1668.59	0.001782
1678.24	0.001552
1687.88	0.001482
1697.53	0.001362
1707.17	0.001452
1716.82	0.001332
1726.46	0.001422
1736.11	0.001452
1745.75	0.001632
1755.4	0.001462
1765.04	0.001362
1774.69	0.001432
1784.33	0.001512
1793.98	0.002072
1803.62	0.002622
1813.27	0.001852
1822.91	0.001482
1832.55	0.001362
1842.2	0.001222
1851.84	0.001412
1861.49	0.001622
1871.13	0.002072
1880.78	0.002292
1890.42	0.002372
1900.07	0.002252
1909.71	0.002112
1919.36	0.002492
1929	0.003132
1938.65	0.004352
1948.29	0.005712
1957.94	0.006542
1967.58	0.007602
1977.23	0.009092
1986.87	0.011482
1996.52	0.015082
2006.16	0.020102
2015.81	0.025672
2025.45	0.031272
2035.1	0.036162
2044.74	0.038902
2054.38	0.037482
2064.03	0.032912
2073.67	0.027272
2083.32	0.022522
2092.96	0.019062
2102.61	0.016722
2112.25	0.015142
2121.9	0.013572
2131.54	0.011812
2141.19	0.009982
2150.83	0.008332
2160.48	0.006542
2170.12	0.005212
2179.77	0.004252
2189.41	0.003712
2199.06	0.003342
2208.7	0.002872
2218.35	0.002632
2227.99	0.002312
2237.64	0.002032
2247.28	0.001782
2256.92	0.001482
2266.57	0.001432
2276.21	0.001312
2285.86	0.001152
2295.5	0.0010549
2305.15	0.001021
2314.79	0.0010886
2324.44	0.0011051
2334.08	0.0010348
2343.73	0.0010307
2353.37	0.0009287
2363.02	0.0007873
2372.66	0.0008038
2382.31	0.00092
2391.95	0.0008047
2401.6	0.0009056
2411.24	0.0011127
2420.89	0.0009818
2430.53	0.0008279
2440.18	0.000733
2449.82	0.0006593
2459.47	0.0007463
2469.11	0.0007292
2478.75	0.0007795
2488.4	0.000736
2498.04	0.00072
2507.69	0.0007137
2517.33	0.0007444
2526.98	0.0008284
2536.62	0.0007447
2546.27	0.0007927
2555.91	0.0007117
2565.56	0.000774
2575.2	0.0008018
2584.85	0.0008481
2594.49	0.000779
2604.14	0.0008638
2613.78	0.0006862
2623.43	0.0007407
2633.07	0.0008735
2642.72	0.0008038
2652.36	0.0009166
2662.01	0.0009938
2671.65	0.0009042
2681.29	0.0010473
2690.94	0.001172
2700.58	0.001232
2710.23	0.001172
2719.87	0.001172
2729.52	0.0010821
2739.16	0.0010315
2748.81	0.0010333
2758.45	0.0010089
2768.1	0.0010489
2777.74	0.0010032
2787.39	0.0009988
2797.03	0.0011182
2806.68	0.0010418
2816.32	0.001142
2825.97	0.0010763
2835.61	0.001232
2845.26	0.001402
2854.9	0.001582
2864.55	0.002612
2874.19	0.005112
2883.84	0.008332
2893.48	0.009092
2903.12	0.008642
2912.77	0.008472
2922.41	0.008962
2932.06	0.011812
2941.7	0.014532
2951.35	0.011112
2960.99	0.008042
2970.64	0.011622
2980.28	0.016542
2989.93	0.013072
2999.57	0.008392
3009.22	0.004632
3018.86	0.004742
3028.51	0.008352
3038.15	0.009792
3047.8	0.006702
3057.44	0.005932
3067.09	0.010862
3076.73	0.012852
3086.38	0.007492
3096.02	0.005542
3105.67	0.003372
3115.31	0.002112
3124.95	0.001242
3134.6	0.0007139
3144.24	0.0005798
3153.89	0.0005257
3163.53	0.0004819
3173.18	0.0005633
3182.82	0.00049
3192.47	0.0003251
3202.11	0.0003915
3211.76	0.0003398
3221.4	0.00017953
3231.05	0.00018348
3240.69	0.0002638
3250.34	0.00012605
3259.98	0.0002464
3269.63	0.00013042
3279.27	5.49e-05
3288.92	0.0001527
3298.56	6.88e-05
3308.21	8.4e-05
3317.85	0.000140859
3327.49	0.000133967
3337.14	0.0002871
3346.78	0.00021038
3356.43	1e-05
3366.07	6.61e-05
3375.72	0.0003195
3385.36	0.0004758
3395.01	0.000246
3404.65	0.0003771
3414.3	0.0004234
3423.94	0.0005023
3433.59	0.0006623
3443.23	0.001232
3452.88	0.002572
3462.52	0.008012
3472.17	0.018282
3481.81	0.016552
3491.46	0.006292
3501.1	0.001892
3510.75	0.0008782
3520.39	0.000527
3530.04	0.0005257
3539.68	0.0002401
3549.32	0.0003592
3558.97	0.0005201
3568.61	0.0004245
3578.26	0.0004028
3587.9	0.0002897
3597.55	0.0004275
3607.19	0.0003003
3616.84	0.0003755
3626.48	0.0010145
3636.13	0.001832
3645.77	0.002642
3655.42	0.002212
3665.06	0.0008066
3674.71	0.0005838
3684.35	0.000391
3694	0.0002775
3703.64	0.0002838
3713.29	0.0002996
3722.93	1.6e-05
3732.58	0.0002785
3742.22	0.0002731
3751.86	0.0002891
3761.51	0.00021871
3771.15	0.0002677
3780.8	0.0002582
3790.44	0.00018802
3800.09	0.00020257
3809.73	0.00016507
3819.38	9.17e-05
3829.02	0.0003036
3838.67	0.0003262
3848.31	0.00017769
3857.96	0.000294
3867.6	0.00019101
3877.25	0.0003308
3886.89	0.0003536
3896.54	0.0002412
3906.18	0.0004745
3915.83	0.0002594
3925.47	0.0004067
3935.12	0.0003932
3944.76	0.0005937
3954.41	0.0005923
3964.05	0.0007134
3973.69	0.0004054
3983.34	0.0003881
3992.98	0.0005542
