Infrared Spectrum: PROPIONIC ACID, 2,3-DICHLORO-2-METHYL-, METHYL ESTER
Formula: C5 H8 Cl2 O2
CAS: 918-78-5
Class: COBLENTZ
Instrument: Not specified, most likely a prism, grating, or hybrid spectrometer.
Sampling: TRANSMISSION
Path length: SMEAR
Resolution: 4
Origin: TENNESSEE EASTMAN COMPANY, RESEARCH LABORATORIES
MICROMETERS	TRANSMITTANCE
2.034	0.823
2.07496	0.828
2.11591	0.835
2.15687	0.837
2.19782	0.789
2.23878	0.801
2.27974	0.825
2.32069	0.826
2.36165	0.83
2.4026	0.838
2.44356	0.845
2.48451	0.857
2.52547	0.861
2.56643	0.864
2.60738	0.873
2.64834	0.881
2.68929	0.881
2.73025	0.879
2.77121	0.879
2.81216	0.878
2.85312	0.823
2.89407	0.852
2.93503	0.874
2.97598	0.876
3.01694	0.878
3.0579	0.876
3.09885	0.869
3.13981	0.859
3.18076	0.855
3.22172	0.825
3.26268	0.687
3.30363	0.497
3.34459	0.481
3.38554	0.476
3.4265	0.734
3.46746	0.742
3.50841	0.866
3.54937	0.914
3.59032	0.927
3.63128	0.924
3.67223	0.926
3.71319	0.931
3.75415	0.938
3.7951	0.938
3.83606	0.929
3.87701	0.914
3.91797	0.929
3.95893	0.939
3.99988	0.934
4.04084	0.933
4.08179	0.941
4.12275	0.946
4.1637	0.943
4.20466	0.939
4.24562	0.939
4.28657	0.941
4.32753	0.95
4.36848	0.953
4.40944	0.96
4.4504	0.975
4.49135	0.975
4.53231	0.975
4.57326	0.974
4.61422	0.948
4.65517	0.933
4.69613	0.95
4.73709	0.95
4.77804	0.958
4.819	0.957
4.85995	0.938
4.90091	0.946
4.94187	0.957
4.98282	0.97
5.02378	0.963
5.06473	0.946
5.10569	0.943
5.14665	0.943
5.1876	0.943
5.22856	0.953
5.26951	0.958
5.31047	0.957
5.35142	0.95
5.39238	0.926
5.43334	0.861
5.47429	0.814
5.51525	0.785
5.5562	0.72
5.59716	0.56
5.63812	0.207
5.67907	0.06
5.72003	0.085
5.76098	0.25
5.80194	0.433
5.84289	0.576
5.88385	0.699
5.92481	0.754
5.96576	0.795
6.00672	0.826
6.04767	0.84
6.08863	0.859
6.12959	0.859
6.17054	0.842
6.2115	0.874
6.25245	0.886
6.29341	0.879
6.33437	0.869
6.37532	0.861
6.41628	0.861
6.45723	0.85
6.49819	0.843
6.53914	0.828
6.5801	0.819
6.62106	0.819
6.66201	0.799
6.70297	0.746
6.74392	0.653
6.78488	0.461
6.82584	0.226
6.86679	0.185
6.90775	0.214
6.9487	0.257
6.98966	0.385
7.03061	0.576
7.07157	0.674
7.11253	0.679
7.15348	0.61
7.19444	0.372
7.23539	0.303
7.27635	0.591
7.31731	0.703
7.35826	0.72
7.39922	0.692
7.44017	0.629
7.48113	0.547
7.52209	0.48
7.56304	0.401
7.604	0.253
7.64495	0.118
7.68591	0.094
7.72686	0.147
7.76782	0.234
7.80878	0.26
7.84973	0.255
7.89069	0.216
7.93164	0.219
7.9726	0.283
8.01356	0.351
8.05451	0.312
8.09547	0.234
8.13642	0.246
8.17738	0.243
8.21833	0.157
8.25929	0.114
8.30025	0.133
8.3412	0.159
8.38216	0.19
8.42311	0.178
8.46407	0.144
8.50503	0.19
8.54598	0.289
8.58694	0.391
8.62789	0.53
8.66885	0.627
8.70981	0.687
8.75076	0.704
8.79172	0.691
8.83267	0.632
8.87363	0.564
8.91458	0.425
8.95554	0.276
8.9965	0.228
9.03745	0.178
9.07841	0.137
9.11936	0.279
9.16032	0.463
9.20128	0.555
9.24223	0.56
9.28319	0.44
9.32414	0.288
9.3651	0.24
9.40605	0.286
9.44701	0.385
9.48797	0.521
9.52892	0.651
9.56988	0.754
9.61083	0.825
9.65179	0.871
9.69275	0.897
9.7337	0.909
9.77466	0.91
9.81561	0.914
9.85657	0.905
9.89753	0.869
9.93848	0.806
9.97944	0.665
10.0204	0.471
10.0613	0.367
10.1023	0.332
10.1433	0.348
10.1842	0.413
10.2252	0.554
10.2661	0.687
10.3071	0.785
10.348	0.833
10.389	0.855
10.43	0.849
10.4709	0.814
10.5119	0.749
10.5528	0.653
10.5938	0.627
10.6347	0.651
10.6757	0.634
10.7166	0.554
10.7576	0.521
10.7986	0.526
10.8395	0.512
10.8805	0.535
10.9214	0.67
10.9624	0.759
11.0033	0.765
11.0443	0.728
11.0852	0.68
11.1262	0.615
11.1672	0.639
11.2081	0.718
11.2491	0.809
11.29	0.874
11.331	0.929
11.3719	0.955
11.4129	0.979
11.4538	0.986
11.4948	0.991
11.5358	0.991
11.5767	0.986
11.6177	0.979
11.6586	0.963
11.6996	0.948
11.7405	0.912
11.7815	0.837
11.8225	0.682
11.8634	0.506
11.9044	0.439
11.9453	0.492
11.9863	0.634
12.0272	0.77
12.0682	0.84
12.1091	0.862
12.1501	0.847
12.1911	0.806
12.232	0.768
12.273	0.737
12.3139	0.706
12.3549	0.716
12.3958	0.746
12.4368	0.771
12.4777	0.783
12.5187	0.771
12.5597	0.749
12.6006	0.73
12.6416	0.686
12.6825	0.605
12.7235	0.545
12.7644	0.54
12.8054	0.548
12.8463	0.531
12.8873	0.518
12.9283	0.603
12.9692	0.71
13.0102	0.766
13.0511	0.807
13.0921	0.821
13.133	0.819
13.174	0.801
13.2149	0.766
13.2559	0.708
13.2969	0.646
13.3378	0.572
13.3788	0.504
13.4197	0.433
13.4607	0.379
13.5016	0.344
13.5426	0.331
13.5836	0.331
13.6245	0.349
13.6655	0.384
13.7064	0.437
13.7474	0.485
13.7883	0.531
13.8293	0.578
13.8702	0.607
13.9112	0.632
13.9522	0.644
13.9931	0.648
14.0341	0.634
14.075	0.603
14.116	0.555
14.1569	0.497
14.1979	0.442
14.2388	0.408
14.2798	0.382
14.3208	0.368
14.3617	0.356
14.4027	0.351
14.4436	0.351
14.4846	0.353
14.5255	0.351
14.5665	0.339
14.6074	0.319
14.6484	0.295
14.6894	0.281
14.7303	0.272
14.7713	0.272
14.8122	0.279
14.8532	0.3
14.8941	0.332
14.9351	0.363
14.9761	0.423
15.017	0.492
15.058	0.559
15.0989	0.6
15.1399	0.636
15.1808	0.674
15.2218	0.698
15.2627	0.723
15.3037	0.735
15.3447	0.747
15.3856	0.756
15.4266	0.763
15.4675	0.768
15.5085	0.77
15.5494	0.773
15.5904	0.778
15.6313	0.782
15.6723	0.783
15.7133	0.785
15.7542	0.787
15.7952	0.787
15.8361	0.789
15.8771	0.79
15.918	0.795
15.959	0.799
15.9999	0.801
