Infrared Spectrum: 3-Methyl-1-penten-3-ol
Formula: C 6 H 12 O
CAS: 918-85-4
State: gas
Instrument: HP-GC/MS/IRD
Origin: NIST Mass Spectrometry Data Center
1/CM	ABSORBANCE
550	0.00062
562	0.00035
574	0.000398
586	0.00028
598	0.000274
610	0.000222
622	0.000232
634	0.000332
646	0.000364
658	0.000548
670	0.001068
682	0.0014
694	0.001194
706	0.000874
718	0.0007
730	0.000452
742	0.000268
754	9.6e-05
766	8.2e-05
778	0.000204
790	0.0003
802	0.000254
814	0.000228
826	0.000102
838	0.00032
850	0.000434
862	0.000716
874	0.001386
886	0.002672
898	0.005504
910	0.010026
922	0.012288
934	0.008382
946	0.003872
958	0.002838
970	0.003942
982	0.005774
994	0.007082
1006	0.00638
1018	0.004804
1030	0.003728
1042	0.003332
1054	0.003062
1066	0.002646
1078	0.002742
1090	0.003374
1102	0.004198
1114	0.004844
1126	0.005066
1138	0.00524
1150	0.005748
1162	0.006158
1174	0.005634
1186	0.004812
1198	0.004102
1210	0.003368
1222	0.002736
1234	0.002532
1246	0.002744
1258	0.003058
1270	0.003404
1282	0.003594
1294	0.003704
1306	0.00367
1318	0.003438
1330	0.003112
1342	0.002876
1354	0.003056
1366	0.00385
1378	0.004596
1390	0.004018
1402	0.003518
1414	0.003524
1426	0.00296
1438	0.002508
1450	0.00294
1462	0.003222
1474	0.002426
1486	0.001366
1498	0.000686
1510	0.000456
1522	0.000332
1534	0.000254
1546	0.000262
1558	0.000308
1570	0.000284
1582	0.000386
1594	0.000452
1606	0.000516
1618	0.000572
1630	0.000792
1642	0.000974
1654	0.000866
1666	0.000442
1678	0.000242
1690	0.00019
1702	0.000142
1714	7.6e-05
1726	1.8e-05
1738	3.8e-05
1750	3.2e-05
1762	0
1774	6e-05
1786	6e-05
1798	8.6e-05
1810	0.000108
1822	0.000238
1834	0.000498
1846	0.00069
1858	0.000578
1870	0.000284
1882	0.000166
1894	0.000136
1906	0.000116
1918	0.000112
1930	0.000102
1942	0.000108
1954	0.000104
1966	0.00011
1978	0.000118
1990	9.2e-05
2002	8.4e-05
2014	7.6e-05
2026	8.2e-05
2038	8e-05
2050	9.6e-05
2062	8.6e-05
2074	0.000114
2086	0.00012
2098	9.2e-05
2110	8.6e-05
2122	9.8e-05
2134	8.8e-05
2146	7.4e-05
2158	8.4e-05
2170	7.8e-05
2182	9.4e-05
2194	6.6e-05
2206	7e-05
2218	0.000114
2230	0.0001
2242	0.000116
2254	9.8e-05
2266	0.000132
2278	0.000108
2290	0.000122
2302	0.000112
2314	0.000102
2326	0.00011
2338	0.000114
2350	0.00013
2362	0.000126
2374	0.00014
2386	0.000134
2398	0.00013
2410	0.000122
2422	8.2e-05
2434	0.000118
2446	0.000108
2458	8.8e-05
2470	9.2e-05
2482	7e-05
2494	7.8e-05
2506	6.4e-05
2518	5.8e-05
2530	7.6e-05
2542	8e-05
2554	0.000108
2566	0.000104
2578	0.000116
2590	0.00013
2602	0.000114
2614	0.000108
2626	0.000102
2638	0.000146
2650	0.000162
2662	0.000158
2674	0.000164
2686	0.000152
2698	0.00016
2710	0.000194
2722	0.000232
2734	0.000292
2746	0.000316
2758	0.000356
2770	0.000398
2782	0.000408
2794	0.000502
2806	0.00058
2818	0.000706
2830	0.000958
2842	0.00149
2854	0.002444
2866	0.003568
2878	0.004946
2890	0.006096
2902	0.006386
2914	0.007384
2926	0.010446
2938	0.012702
2950	0.012132
2962	0.014156
2974	0.01903
2986	0.018022
2998	0.010458
3010	0.005212
3022	0.00333
3034	0.00221
3046	0.001644
3058	0.001632
3070	0.002092
3082	0.003038
3094	0.003504
3106	0.002264
3118	0.001002
3130	0.000542
3142	0.000494
3154	0.000438
3166	0.000396
3178	0.000332
3190	0.00032
3202	0.000334
3214	0.0003
3226	0.000252
3238	0.000212
3250	0.000176
3262	0.000136
3274	0.000158
3286	0.000178
3298	0.000138
3310	0.000126
3322	0.000118
3334	8.2e-05
3346	0.000148
3358	0.000176
3370	0.000176
3382	0.000192
3394	0.000166
3406	0.000152
3418	0.00019
3430	0.000168
3442	0.000154
3454	0.000116
3466	0.000132
3478	0.000146
3490	9.8e-05
3502	7.8e-05
3514	8.2e-05
3526	8e-05
3538	0.00011
3550	0.00014
3562	0.000126
3574	7e-05
3586	0.000126
3598	0.000236
3610	0.000452
3622	0.001348
3634	0.002154
3646	0.002164
3658	0.001132
3670	0.000414
3682	0.000184
3694	0.000134
3706	0.000106
3718	3.8e-05
3730	0.00014
3742	0.000124
3754	9.6e-05
3766	7e-05
3778	0.000126
3790	0.00013
3802	3.2e-05
3814	8.2e-05
3826	5.2e-05
3838	0.000112
