Infrared Spectrum: VALERIC ACID, 2,2,4-TRIMETHYL-3-OXO-, METHYL ESTER
Formula: C9 H16 O3
CAS: 918-71-8
Class: COBLENTZ
Instrument: Not specified, most likely a prism, grating, or hybrid spectrometer.
Sampling: TRANSMISSION
Path length: SMEAR
Resolution: 4
Origin: TENNESSEE EASTMAN COMPANY, RESEARCH LABORATORIES
MICROMETERS	TRANSMITTANCE
2.075	0.974
2.11589	0.974
2.15679	0.974
2.19768	0.974
2.23858	0.95
2.27947	0.941
2.32037	0.947
2.36126	0.95
2.40216	0.95
2.44305	0.952
2.48395	0.952
2.52484	0.957
2.56573	0.958
2.60663	0.958
2.64752	0.958
2.68842	0.955
2.72931	0.933
2.77021	0.923
2.8111	0.921
2.852	0.926
2.89289	0.923
2.93379	0.909
2.97468	0.924
3.01558	0.933
3.05647	0.931
3.09736	0.929
3.13826	0.923
3.17915	0.919
3.22005	0.924
3.26094	0.911
3.30184	0.774
3.34273	0.241
3.38363	0.345
3.42452	0.588
3.46542	0.596
3.50631	0.841
3.5472	0.899
3.5881	0.928
3.62899	0.931
3.66989	0.933
3.71078	0.938
3.75168	0.945
3.79257	0.941
3.83347	0.943
3.87436	0.943
3.91526	0.943
3.95615	0.941
3.99705	0.945
4.03794	0.947
4.07883	0.943
4.11973	0.943
4.16062	0.941
4.20152	0.945
4.24241	0.94
4.28331	0.921
4.3242	0.919
4.3651	0.935
4.40599	0.945
4.44689	0.95
4.48778	0.948
4.52867	0.947
4.56957	0.948
4.61046	0.947
4.65136	0.94
4.69225	0.941
4.73315	0.936
4.77404	0.936
4.81494	0.941
4.85583	0.94
4.89673	0.935
4.93762	0.933
4.97852	0.938
5.01941	0.938
5.0603	0.924
5.1012	0.928
5.14209	0.931
5.18299	0.933
5.22388	0.929
5.26478	0.933
5.30567	0.931
5.34657	0.929
5.38746	0.929
5.42836	0.919
5.46925	0.899
5.51014	0.882
5.55104	0.849
5.59193	0.765
5.63283	0.699
5.67372	0.478
5.71462	0.08
5.75551	0.099
5.79641	0.066
5.8373	0.037
5.8782	0.211
5.91909	0.579
5.95999	0.673
6.00088	0.762
6.04177	0.794
6.08267	0.8
6.12356	0.813
6.16446	0.823
6.20535	0.841
6.24625	0.851
6.28714	0.868
6.32804	0.868
6.36893	0.856
6.40983	0.83
6.45072	0.829
6.49161	0.817
6.53251	0.817
6.5734	0.798
6.6143	0.781
6.65519	0.762
6.69609	0.668
6.73698	0.47
6.77788	0.196
6.81877	0.275
6.85967	0.367
6.90056	0.403
6.94146	0.388
6.98235	0.639
7.02324	0.728
7.06414	0.779
7.10503	0.769
7.14593	0.654
7.18682	0.396
7.22772	0.406
7.26861	0.608
7.30951	0.511
7.3504	0.649
7.3913	0.668
7.43219	0.649
7.47308	0.717
7.51398	0.767
7.55487	0.762
7.59577	0.741
7.63666	0.707
7.67756	0.654
7.71845	0.553
7.75935	0.406
7.80024	0.246
7.84114	0.179
7.88203	0.157
7.92293	0.131
7.96382	0.184
8.00471	0.374
8.04561	0.483
8.0865	0.57
8.1274	0.582
8.16829	0.541
8.20919	0.499
8.25008	0.466
8.29098	0.372
8.33187	0.27
8.37277	0.297
8.41366	0.386
8.45455	0.389
8.49545	0.319
8.53634	0.278
8.57724	0.177
8.61813	0.073
8.65903	0.035
8.69992	0.071
8.74082	0.194
8.78171	0.377
8.82261	0.494
8.8635	0.593
8.9044	0.639
8.94529	0.659
8.98618	0.671
9.02708	0.663
9.06797	0.558
9.10887	0.49
9.14976	0.613
9.19066	0.683
9.23155	0.716
9.27245	0.723
9.31334	0.709
9.35424	0.714
9.39513	0.711
9.43602	0.664
9.47692	0.557
9.51781	0.35
9.55871	0.145
9.5996	0.133
9.6405	0.299
9.68139	0.442
9.72229	0.507
9.76318	0.524
9.80408	0.545
9.84497	0.528
9.88587	0.42
9.92676	0.288
9.96765	0.369
10.0085	0.485
10.0494	0.519
10.0903	0.511
10.1312	0.564
10.1721	0.644
10.213	0.712
10.2539	0.765
10.2948	0.789
10.3357	0.798
10.3766	0.8
10.4175	0.794
10.4584	0.779
10.4993	0.794
10.5402	0.817
10.5811	0.825
10.622	0.815
10.6629	0.786
10.7038	0.777
10.7447	0.798
10.7855	0.818
10.8264	0.832
10.8673	0.825
10.9082	0.786
10.9491	0.776
10.99	0.825
11.0309	0.858
11.0718	0.88
11.1127	0.885
11.1536	0.894
11.1945	0.895
11.2354	0.89
11.2763	0.878
11.3172	0.847
11.3581	0.779
11.399	0.658
11.4399	0.61
11.4808	0.741
11.5216	0.827
11.5625	0.861
11.6034	0.875
11.6443	0.882
11.6852	0.882
11.7261	0.878
11.767	0.866
11.8079	0.794
11.8488	0.695
11.8897	0.605
11.9306	0.661
11.9715	0.738
12.0124	0.781
12.0533	0.817
12.0942	0.83
12.1351	0.863
12.176	0.859
12.2169	0.866
12.2578	0.871
12.2986	0.885
12.3395	0.888
12.3804	0.911
12.4213	0.876
12.4622	0.876
12.5031	0.868
12.544	0.873
12.5849	0.866
12.6258	0.851
12.6667	0.839
12.7076	0.832
12.7485	0.835
12.7894	0.817
12.8303	0.805
12.8712	0.801
12.9121	0.81
12.953	0.805
12.9939	0.81
13.0347	0.81
13.0756	0.823
13.1165	0.839
13.1574	0.846
13.1983	0.847
13.2392	0.847
13.2801	0.847
13.321	0.847
13.3619	0.847
13.4028	0.844
13.4437	0.837
13.4846	0.829
13.5255	0.827
13.5664	0.823
13.6073	0.825
13.6482	0.825
13.6891	0.823
13.73	0.82
13.7709	0.82
13.8117	0.815
13.8526	0.813
13.8935	0.813
13.9344	0.808
13.9753	0.806
14.0162	0.803
14.0571	0.8
14.098	0.796
14.1389	0.793
14.1798	0.788
14.2207	0.786
14.2616	0.781
14.3025	0.774
14.3434	0.767
14.3843	0.764
14.4252	0.758
14.4661	0.75
14.507	0.747
14.5478	0.74
14.5887	0.733
14.6296	0.723
14.6705	0.719
14.7114	0.709
14.7523	0.699
14.7932	0.688
14.8341	0.676
14.875	0.661
14.9159	0.641
14.9568	0.623
14.9977	0.615
15.0386	0.611
15.0795	0.606
15.1204	0.601
15.1613	0.601
15.2022	0.603
15.2431	0.603
15.2839	0.603
15.3248	0.601
15.3657	0.6
15.4066	0.596
15.4475	0.591
15.4884	0.588
15.5293	0.584
15.5702	0.584
15.6111	0.582
15.652	0.579
15.6929	0.577
15.7338	0.577
15.7747	0.577
15.8156	0.576
15.8565	0.572
15.8974	0.567
