Infrared Spectrum: HEXANE, 1,6-DIBROMO-DODECAFLUORO-
Formula: C6 Br2 F12
CAS: 918-22-9
State: SOLUTION (10% IN CCl4 FOR 3800-1400, 10% IN CS2 FOR 1400-620, AND 10% CCl4 FOR 620-240 CM^-^1) VERSUS SOLVENT
Class: COBLENTZ III
Instrument: PERKIN-ELMER 521 (GRATING)
Instrument parameters: FILTERS AT 3150, 2500, 2000, 1150, 700, 410; GRATING CHANGES AT 2000, 630 CM^-^1
Sampling: TRANSMISSION
Path length: 0.012, 0.011, AND 0.010 CM (CsBr CELL)
Resolution: 4
Origin: DOW CORNING CORP.
1/CM	TRANSMITTANCE
241.402	0.747
251.26	0.758
261.117	0.776
270.975	0.786
280.833	0.807
290.69	0.818
300.548	0.828
310.405	0.835
320.263	0.855
330.121	0.864
339.978	0.87
349.836	0.87
359.694	0.867
369.551	0.866
379.409	0.852
389.267	0.863
399.124	0.86
408.982	0.844
418.839	0.844
428.697	0.834
438.555	0.83
448.412	0.816
458.27	0.811
468.128	0.808
477.985	0.796
487.843	0.814
497.701	0.79
507.558	0.82
517.416	0.803
527.273	0.763
537.131	0.762
546.989	0.708
556.846	0.474
566.704	0.451
576.562	0.534
586.419	0.614
596.277	0.691
606.135	0.629
615.992	0.616
625.85	0.56
635.707	0.41
645.565	0.266
655.423	0.512
665.28	0.597
675.138	0.435
684.996	0.439
694.853	0.692
704.711	0.558
714.569	0.696
724.426	0.689
734.284	0.696
744.141	0.302
753.999	0.72
763.857	0.5941
773.714	0.668
783.572	0.723
793.43	0.766
803.287	0.768
813.145	0.331
823.003	0.782
832.86	0.802
842.718	0.755
852.575	0.712
862.433	0.844
872.291	0.867
882.148	0.802
892.006	0.856
901.864	0.862
911.721	0.85
921.579	0.758
931.437	0.473
941.294	0.327
951.152	0.3791
961.009	0.724
970.867	0.842
980.725	0.848
990.582	0.854
1000.44	0.874
1010.3	0.85
1020.16	0.79
1030.01	0.729
1039.87	0.43
1049.73	0.5761
1059.59	0.699
1069.44	0.784
1079.3	0.748
1089.16	0.605
1099.02	0.05
1108.87	0.596
1118.73	0.3789
1128.59	0.2
1138.45	0.127
1148.3	0
1158.16	0.006
1168.02	0.062
1177.88	0.131
1187.74	0.03
1197.59	0.013
1207.45	0
1217.31	0
1227.17	0.044
1237.02	0.334
1246.88	0.514
1256.74	0.548
1266.6	0.689
1276.45	0.741
1286.31	0.779
1296.17	0.796
1306.03	0.779
1315.88	0.794
1325.74	0.794
1335.6	0.79
1345.46	0.87
1355.31	0.882
1365.17	0.883
1375.03	0.883
1384.89	0.891
1394.75	0.889
1404.6	0.893
1414.46	0.895
1424.32	0.898
1434.18	0.894
1444.03	0.898
1453.89	0.895
1463.75	0.895
1473.61	0.894
1483.46	0.893
1493.32	0.891
1503.18	0.889
1513.04	0.875
1522.89	0.872
1532.75	0.863
1542.61	0.85
1552.47	0.847
1562.33	0.858
1572.18	0.862
1582.04	0.87
1591.9	0.874
1601.76	0.887
1611.61	0.898
1621.47	0.901
1631.33	0.902
1641.19	0.902
1651.04	0.903
1660.9	0.902
1670.76	0.903
1680.62	0.901
1690.47	0.907
1700.33	0.901
1710.19	0.901
1720.05	0.902
1729.91	0.899
1739.76	0.899
1749.62	0.902
1759.48	0.901
1769.34	0.898
1779.19	0.886
1789.05	0.895
1798.91	0.903
1808.77	0.905
1818.62	0.902
1828.48	0.905
1838.34	0.909
1848.2	0.907
1858.05	0.906
1867.91	0.909
1877.77	0.905
1887.63	0.909
1897.48	0.911
1907.34	0.911
1917.2	0.911
1927.06	0.913
1936.92	0.91
1946.77	0.909
1956.63	0.913
1966.49	0.914
1976.35	0.917
1986.2	0.913
1996.06	0.915
2005.92	0.921
2015.78	0.919
2025.63	0.918
2035.49	0.917
2045.35	0.919
2055.21	0.915
2065.06	0.915
2074.92	0.9179
2084.78	0.913
2094.64	0.9129
2104.5	0.914
2114.35	0.914
2124.21	0.914
2134.07	0.914
2143.93	0.913
2153.78	0.913
2163.64	0.9072
2173.5	0.911
2183.36	0.9072
2193.21	0.907
2203.07	0.9051
2212.93	0.903
2222.79	0.9011
2232.64	0.901
2242.5	0.901
2252.36	0.8941
2262.22	0.8824
2272.08	0.8927
2281.93	0.8945
2291.79	0.8925
2301.65	0.8862
2311.51	0.881
2321.36	0.881
2331.22	0.881
2341.08	0.8818
2350.94	0.885
2360.79	0.883
2370.65	0.885
2380.51	0.8858
2390.37	0.8868
2400.22	0.886
2410.08	0.886
2419.94	0.8901
2429.8	0.89
2439.65	0.8925
2449.51	0.8987
2459.37	0.8983
2469.23	0.8977
2479.09	0.903
2488.94	0.9013
2498.8	0.8958
2508.66	0.899
2518.52	0.897
2528.37	0.8933
2538.23	0.893
2548.09	0.891
2557.95	0.8907
2567.8	0.902
2577.66	0.903
2587.52	0.905
2597.38	0.903
2607.23	0.9057
2617.09	0.9103
2626.95	0.906
2636.81	0.906
2646.67	0.906
2656.52	0.906
2666.38	0.902
2676.24	0.906
2686.1	0.9064
2695.95	0.906
2705.81	0.906
2715.67	0.906
2725.53	0.905
2735.38	0.905
2745.24	0.9082
2755.1	0.906
2764.96	0.907
2774.81	0.9064
2784.67	0.907
2794.53	0.9064
2804.39	0.909
2814.25	0.907
2824.1	0.9081
2833.96	0.9065
2843.82	0.9076
2853.68	0.911
2863.53	0.907
2873.39	0.907
2883.25	0.909
2893.11	0.908
2902.96	0.9075
2912.82	0.908
2922.68	0.906
2932.54	0.907
2942.39	0.9081
2952.25	0.907
2962.11	0.907
2971.97	0.9105
2981.82	0.9096
2991.68	0.911
3001.54	0.91
3011.4	0.913
3021.26	0.915
3031.11	0.917
3040.97	0.913
3050.83	0.915
3060.69	0.915
3070.54	0.915
3080.4	0.9158
3090.26	0.915
3100.12	0.917
3109.97	0.917
3119.83	0.915
3129.69	0.926
3139.55	0.921
3149.4	0.9203
3159.26	0.921
3169.12	0.919
3178.98	0.921
3188.84	0.922
3198.69	0.922
3208.55	0.9223
3218.41	0.925
3228.27	0.925
3238.12	0.9236
3247.98	0.9263
3257.84	0.9267
3267.7	0.923
3277.55	0.9217
3287.41	0.921
3297.27	0.921
3307.13	0.917
3316.98	0.917
3326.84	0.915
3336.7	0.915
3346.56	0.914
3356.42	0.915
3366.27	0.914
3376.13	0.9132
3385.99	0.914
3395.85	0.914
3405.7	0.914
3415.56	0.913
3425.42	0.914
3435.28	0.913
3445.13	0.913
3454.99	0.913
3464.85	0.913
3474.71	0.9138
3484.56	0.913
3494.42	0.9138
3504.28	0.914
3514.14	0.9132
3523.99	0.915
3533.85	0.9139
3543.71	0.913
3553.57	0.9144
3563.43	0.915
3573.28	0.915
3583.14	0.9208
3593	0.915
3602.86	0.918
3612.71	0.918
3622.57	0.917
3632.43	0.915
3642.29	0.919
3652.14	0.9189
3662	0.9152
3671.86	0.9169
3681.72	0.9152
3691.57	0.918
3701.43	0.917
3711.29	0.917
3721.15	0.919
3731.01	0.9191
3740.86	0.9191
3750.72	0.921
3760.58	0.921
3770.44	0.919
3780.29	0.917
3790.15	0.917
