Infrared Spectrum: 3-Chloro-3-methylpentane
Formula: C 6 H 13 Cl
CAS: 918-84-3
State: gas
Instrument: HP-GC/MS/IRD
Origin: NIST Mass Spectrometry Data Center
1/CM	ABSORBANCE
550	0.0018888
562	0.0020592
574	0.0011448
586	0.000804
598	0.0012984
610	0.0016392
622	0.0008472
634	0.0002232
646	0.0002016
658	8.64e-05
670	7.68e-05
682	1.44e-05
694	0.0001056
706	0.0001392
718	0.0002448
730	0.0004656
742	0.0008712
754	0.0011304
766	0.0010752
778	0.0011064
790	0.001164
802	0.0018984
814	0.0035328
826	0.0041208
838	0.0024504
850	0.0008496
862	0.0004632
874	0.0004992
886	0.0005808
898	0.0004944
910	0.0002568
922	0.0001608
934	0.0002184
946	0.0005016
958	0.0010584
970	0.001416
982	0.0012048
994	0.0013704
1006	0.0017736
1018	0.0013416
1030	0.0007824
1042	0.0006744
1054	0.0008112
1066	0.001008
1078	0.000912
1090	0.0008112
1102	0.0013632
1114	0.0028104
1126	0.0040056
1138	0.003924
1150	0.0034128
1162	0.0026136
1174	0.0015696
1186	0.0011208
1198	0.0008184
1210	0.000576
1222	0.0003864
1234	0.0003048
1246	0.0003504
1258	0.000468
1270	0.0008544
1282	0.0013104
1294	0.0014472
1306	0.0012072
1318	0.0010008
1330	0.0009888
1342	0.001044
1354	0.001176
1366	0.0021696
1378	0.0041616
1390	0.004332
1402	0.0020976
1414	0.0008664
1426	0.0012048
1438	0.0025296
1450	0.0046632
1462	0.0055872
1474	0.0039624
1486	0.0018768
1498	0.0008304
1510	0.000516
1522	0.0004032
1534	0.000384
1546	0.0003864
1558	0.0003912
1570	0.0004008
1582	0.000336
1594	0.0002568
1606	0.0002352
1618	0.000204
1630	0.00018
1642	0.000204
1654	0.0001944
1666	0.0001512
1678	0.0001056
1690	0.0001104
1702	0.0001032
1714	8.4e-05
1726	6.24e-05
1738	6.48e-05
1750	2.64e-05
1762	6e-05
1774	7.92e-05
1786	7.2e-05
1798	6.96e-05
1810	6.96e-05
1822	6.96e-05
1834	4.08e-05
1846	5.28e-05
1858	5.04e-05
1870	4.8e-05
1882	4.56e-05
1894	3.36e-05
1906	4.56e-05
1918	3.36e-05
1930	6e-05
1942	4.32e-05
1954	5.76e-05
1966	4.56e-05
1978	4.56e-05
1990	4.56e-05
2002	4.08e-05
2014	1.2e-05
2026	3.12e-05
2038	1.92e-05
2050	3.84e-05
2062	1.2e-05
2074	4.32e-05
2086	2.4e-05
2098	4.8e-05
2110	5.04e-05
2122	3.84e-05
2134	2.88e-05
2146	4.56e-05
2158	5.28e-05
2170	6e-05
2182	5.76e-05
2194	6e-05
2206	4.32e-05
2218	3.6e-05
2230	5.76e-05
2242	2.88e-05
2254	2.4e-05
2266	3.84e-05
2278	3.6e-05
2290	3.36e-05
2302	4.32e-05
2314	4.08e-05
2326	3.6e-05
2338	6.72e-05
2350	0.000108
2362	9.84e-05
2374	7.44e-05
2386	0.0001152
2398	0.0001176
2410	6.48e-05
2422	7.92e-05
2434	0.0001128
2446	9.36e-05
2458	8.64e-05
2470	6.72e-05
2482	5.28e-05
2494	6.24e-05
2506	5.76e-05
2518	6e-05
2530	7.92e-05
2542	8.64e-05
2554	0.0001008
2566	9.36e-05
2578	0.0001008
2590	0.0001056
2602	0.0001152
2614	0.0001824
2626	0.0001728
2638	0.0002016
2650	0.0001896
2662	0.0001968
2674	0.0002472
2686	0.0002064
2698	0.0001656
2710	0.0002352
2722	0.000288
2734	0.0003648
2746	0.0004608
2758	0.0005496
2770	0.0005184
2782	0.0005088
2794	0.0006072
2806	0.0007488
2818	0.000936
2830	0.0012168
2842	0.0020448
2854	0.00318
2866	0.0041352
2878	0.0060816
2890	0.0088704
2902	0.00996
2914	0.0101808
2926	0.0124056
2938	0.0163392
2950	0.0167784
2962	0.016536
2974	0.0217608
2986	0.0227832
2998	0.0136152
3010	0.005556
3022	0.0021864
3034	0.0014064
3046	0.0011112
3058	0.0010152
3070	0.0010104
3082	0.0010392
3094	0.0009672
3106	0.0007968
3118	0.0006312
3130	0.0004752
3142	0.000432
3154	0.0004488
3166	0.0004128
3178	0.0004416
3190	0.0003792
3202	0.0003432
3214	0.0003
3226	0.0002424
3238	0.0002592
3250	0.0002304
3262	0.0001824
3274	0.0001848
3286	0.0001368
3298	0.0001536
3310	0.00012
3322	0.0001392
3334	0.00012
3346	0.0001368
3358	8.4e-05
3370	6.72e-05
3382	0.0001056
3394	0.0001368
3406	6e-05
3418	6.72e-05
3430	7.68e-05
3442	7.2e-05
3454	0.0001176
3466	6.72e-05
3478	9.12e-05
3490	4.56e-05
3502	0.0001056
3514	6.96e-05
3526	3.84e-05
3538	7.68e-05
3550	0.0001128
3562	4.56e-05
3574	5.52e-05
3586	6.24e-05
3598	8.16e-05
3610	6.72e-05
3622	9.84e-05
3634	0.0001128
3646	6.96e-05
3658	8.4e-05
3670	7.68e-05
3682	6.24e-05
3694	6e-05
3706	5.04e-05
3718	8.88e-05
3730	6e-05
3742	0.0001224
3754	0.0001152
3766	9.12e-05
3778	0.0001248
3790	8.4e-05
3802	7.92e-05
3814	0.0001176
3826	5.04e-05
3838	6.72e-05
