Infrared Spectrum: 2-Amino-3,5-dibromo-6-methylpyridine
Formula: C 6 H 6 Br 2 N 2
CAS: 91872-10-5
State: gas
Origin: EPA-IR VAPOR PHASE LIBRARY
1/CM	ABSORBANCE
549.8	0.006825
559.445	0.006485
569.09	0.008075
578.734	0.008285
588.379	0.008945
598.024	0.011615
607.669	0.007475
617.313	0.006115
626.958	0.006605
636.603	0.008555
646.248	0.014645
655.893	0.026185
665.537	0.042885
675.182	0.024655
684.827	0.015085
694.472	0.013525
704.116	0.013305
713.761	0.013205
723.406	0.015695
733.051	0.017415
742.695	0.017115
752.34	0.012065
761.985	0.010425
771.63	0.011855
781.275	0.013025
790.919	0.010725
800.564	0.008425
810.209	0.007595
819.854	0.009775
829.498	0.008075
839.143	0.007475
848.788	0.007405
858.433	0.007605
868.078	0.007325
877.722	0.007025
887.367	0.009255
897.012	0.013185
906.657	0.009815
916.301	0.005985
925.946	0.005385
935.591	0.006355
945.236	0.009115
954.88	0.019175
964.525	0.033065
974.17	0.025465
983.815	0.016855
993.46	0.014705
1003.1	0.010625
1012.75	0.007845
1022.39	0.008495
1032.04	0.012315
1041.68	0.019065
1051.33	0.025135
1060.97	0.022545
1070.62	0.011945
1080.26	0.006975
1089.91	0.006635
1099.55	0.011355
1109.2	0.009055
1118.84	0.005345
1128.49	0.004925
1138.13	0.004075
1147.78	0.006235
1157.42	0.004925
1167.07	0.004565
1176.71	0.005255
1186.36	0.010245
1196	0.009175
1205.64	0.003625
1215.29	0.004045
1224.93	0.006385
1234.58	0.007085
1244.22	0.010135
1253.87	0.016085
1263.51	0.011805
1273.16	0.005885
1282.8	0.005455
1292.45	0.007765
1302.09	0.007225
1311.74	0.004935
1321.38	0.003695
1331.03	0.003585
1340.67	0.004025
1350.32	0.005415
1359.96	0.008405
1369.61	0.010305
1379.25	0.009025
1388.9	0.015865
1398.54	0.022625
1408.18	0.020415
1417.83	0.036615
1427.47	0.111555
1437.12	0.239795
1446.76	0.152765
1456.41	0.046905
1466.05	0.021215
1475.7	0.015175
1485.34	0.010695
1494.99	0.008695
1504.63	0.008925
1514.28	0.011215
1523.92	0.013135
1533.57	0.016385
1543.21	0.022995
1552.86	0.029115
1562.5	0.021885
1572.15	0.018375
1581.79	0.029995
1591.44	0.073135
1601.08	0.149645
1610.73	0.134105
1620.37	0.061385
1630.01	0.029355
1639.66	0.017375
1649.3	0.011065
1658.95	0.007475
1668.59	0.005335
1678.24	0.004345
1687.88	0.003225
1697.53	0.003115
1707.17	0.002155
1716.82	0.002305
1726.46	0.002345
1736.11	0.0014986
1745.75	0.002005
1755.4	0.002145
1765.04	0.002295
1774.69	0.002485
1784.33	0.002695
1793.98	0.002725
1803.62	0.002035
1813.27	0.001715
1822.91	0.001675
1832.55	0.0015302
1842.2	0.0014201
1851.84	0.0012223
1861.49	0.0013208
1871.13	0.0010524
1880.78	0.0014201
1890.42	0.001575
1900.07	0.0015353
1909.71	0.0014942
1919.36	0.0012809
1929	0.0014797
1938.65	0.0013995
1948.29	0.0011603
1957.94	0.0014731
1967.58	0.0013224
1977.23	0.0013123
1986.87	0.001097
1996.52	0.0012002
2006.16	0.0013265
2015.81	0.0014224
2025.45	0.0013773
2035.1	0.0012186
2044.74	0.0012861
2054.38	0.0012734
2064.03	0.0014518
2073.67	0.001755
2083.32	0.001655
2092.96	0.001725
2102.61	0.0015428
2112.25	0.001262
2121.9	0.0013866
2131.54	0.0012743
2141.19	0.0013937
2150.83	0.001565
2160.48	0.0015186
2170.12	0.001575
2179.77	0.0012088
2189.41	0.0009999
2199.06	0.0011229
2208.7	0.0010812
2218.35	0.0010312
2227.99	0.0011208
2237.64	0.0010804
2247.28	0.001025
2256.92	0.0011373
2266.57	0.0010591
2276.21	0.0012824
2285.86	0.0011218
2295.5	0.0011547
2305.15	0.0009443
2314.79	0.0010731
2324.44	0.0012927
2334.08	0.0010264
2343.73	0.000932
2353.37	0.0011941
2363.02	0.0009701
2372.66	0.0011473
2382.31	0.0009828
2391.95	0.0012835
2401.6	0.0011332
2411.24	0.0008822
2420.89	0.0007916
2430.53	0.0011198
2440.18	0.0010108
2449.82	0.000992
2459.47	0.0009313
2469.11	0.0010091
2478.75	0.001665
2488.4	0.0015334
2498.04	0.001665
2507.69	0.001585
2517.33	0.0015464
2526.98	0.0013631
2536.62	0.0011284
2546.27	0.0012696
2555.91	0.0015292
2565.56	0.0010059
2575.2	0.0012854
2584.85	0.0008457
2594.49	0.0009565
2604.14	0.0006769
2613.78	0.0006775
2623.43	0.0009719
2633.07	0.0009669
2642.72	0.0009669
2652.36	0.0012019
2662.01	0.0009817
2671.65	0.00060789
2681.29	0.0008159
2690.94	0.0011233
2700.58	0.0011075
2710.23	0.0007814
2719.87	0.0006991
2729.52	0.0012287
2739.16	0.0009269
2748.81	0.0008167
2758.45	0.0010606
2768.1	0.0008054
2777.74	0.0007184
2787.39	0.0013584
2797.03	0.001595
2806.68	0.0014687
2816.32	0.0014515
2825.97	0.001038
2835.61	0.001825
2845.26	0.001715
2854.9	0.001835
2864.55	0.001725
2874.19	0.002495
2883.84	0.001815
2893.48	0.001815
2903.12	0.001855
2912.77	0.002415
2922.41	0.003555
2932.06	0.007375
2941.7	0.008585
2951.35	0.004745
2960.99	0.003645
2970.64	0.003515
2980.28	0.003335
2989.93	0.002375
2999.57	0.002885
3009.22	0.003255
3018.86	0.002985
3028.51	0.002195
3038.15	0.002265
3047.8	0.002015
3057.44	0.001865
3067.09	0.001685
3076.73	0.0015149
3086.38	0.0013384
3096.02	0.0010876
3105.67	0.0012731
3115.31	0.0012283
3124.95	0.0010509
3134.6	0.0013158
3144.24	0.0014758
3153.89	0.0013971
3163.53	0.001605
3173.18	0.0014334
3182.82	0.001074
3192.47	0.000993
3202.11	0.0013256
3211.76	0.0009666
3221.4	0.000141
3231.05	0.0010913
3240.69	0.0007177
3250.34	0.000211
3259.98	0.0005205
3269.63	0.0007748
3279.27	0.0006778
3288.92	0.0006979
3298.56	0.0006596
3308.21	0.000258
3317.85	0.000234
3327.49	0.000185
3337.14	0.0006736
3346.78	0.0010015
3356.43	0.0007509
3366.07	0.00057055
3375.72	0.001675
3385.36	0.002505
3395.01	0.004825
3404.65	0.013145
3414.3	0.021935
3423.94	0.018135
3433.59	0.021425
3443.23	0.015265
3452.88	0.004375
3462.52	0.002405
3472.17	0.002805
3481.81	0.003445
3491.46	0.004525
3501.1	0.009195
3510.75	0.014045
3520.39	0.015435
3530.04	0.011435
3539.68	0.012685
3549.32	0.015375
3558.97	0.007565
3568.61	0.003085
3578.26	0.001404
3587.9	0.0011517
3597.55	0.002045
3607.19	0.0007546
3616.84	0.0014142
3626.48	0.0014675
3636.13	0.001201
3645.77	0.0010599
3655.42	0.000424
3665.06	0.0014648
3674.71	0.0012005
3684.35	0.0013035
3694	0.0007799
3703.64	0.0009188
3713.29	0.0007292
3722.93	0.0006932
3732.58	0.0013296
3742.22	0.001096
3751.86	0.000185
3761.51	0.0014447
3771.15	0.0008279
3780.8	0.0010377
3790.44	0.0009602
3800.09	0.0009356
3809.73	0.0012277
3819.38	0.0012825
3829.02	0.0013934
3838.67	0.0010277
3848.31	0.001805
3857.96	0.001745
3867.6	0.0012068
3877.25	0.002965
3886.89	0.001685
3896.54	0.0015202
3906.18	0.0006492
3915.83	0.001695
3925.47	0.0007008
3935.12	0.001655
3944.76	0.0012262
3954.41	0.000248
3964.05	0.0015284
3973.69	0.002215
3983.34	0.0014899
3992.98	0.001605
