Infrared Spectrum: PHOSPHONIC ACID, ACETYLDIETHYL ESTER
Formula: C6 H13 O4 P
CAS: 919-19-7
Boiling point: 79-81 C AT 2.2-2.5 mmHg
Class: COBLENTZ
Instrument: Not specified, most likely a prism, grating, or hybrid spectrometer.
Sampling: TRANSMISSION
Path length: SMEAR
Resolution: 4
Origin: TENNESSEE EASTMAN COMPANY, RESEARCH LABORATORIES
MICROMETERS	TRANSMITTANCE
2.063	0.973
2.10315	0.974
2.1433	0.974
2.18344	0.976
2.22359	0.971
2.26374	0.946
2.30389	0.939
2.34404	0.941
2.38418	0.951
2.42433	0.953
2.46448	0.953
2.50463	0.953
2.54478	0.953
2.58492	0.963
2.62507	0.969
2.66522	0.969
2.70537	0.966
2.74552	0.899
2.78566	0.813
2.82581	0.726
2.86596	0.691
2.90611	0.701
2.94626	0.749
2.9864	0.742
3.02655	0.774
3.0667	0.786
3.10685	0.794
3.147	0.819
3.18714	0.849
3.22729	0.863
3.26744	0.859
3.30759	0.771
3.34774	0.235
3.38788	0.517
3.42803	0.467
3.46818	0.716
3.50833	0.811
3.54848	0.864
3.58862	0.893
3.62877	0.903
3.66892	0.914
3.70907	0.929
3.74922	0.941
3.78936	0.944
3.82951	0.944
3.86966	0.946
3.90981	0.958
3.94996	0.959
3.9901	0.959
4.03025	0.948
4.0704	0.948
4.11055	0.951
4.1507	0.958
4.19084	0.964
4.23099	0.976
4.27114	0.998
4.31129	0.979
4.35144	0.953
4.39158	0.948
4.43173	0.963
4.47188	0.968
4.51203	0.968
4.55218	0.968
4.59232	0.968
4.63247	0.968
4.67262	0.964
4.71277	0.963
4.75292	0.959
4.79306	0.961
4.83321	0.964
4.87336	0.968
4.91351	0.968
4.95366	0.966
4.9938	0.966
5.03395	0.963
5.0741	0.959
5.11425	0.956
5.1544	0.958
5.19454	0.958
5.23469	0.953
5.27484	0.949
5.31499	0.941
5.35514	0.934
5.39528	0.908
5.43543	0.884
5.47558	0.874
5.51573	0.878
5.55588	0.879
5.59602	0.859
5.63617	0.844
5.67632	0.829
5.71647	0.851
5.75661	0.804
5.79676	0.57
5.83691	0.317
5.87706	0.123
5.91721	0.108
5.95735	0.445
5.9975	0.639
6.03765	0.722
6.0778	0.754
6.11795	0.791
6.15809	0.816
6.19824	0.844
6.23839	0.876
6.27854	0.883
6.31869	0.899
6.35883	0.898
6.39898	0.896
6.43913	0.871
6.47928	0.876
6.51943	0.861
6.55957	0.844
6.59972	0.833
6.63987	0.791
6.68002	0.767
6.72017	0.592
6.76031	0.554
6.80046	0.651
6.84061	0.621
6.88076	0.497
6.92091	0.454
6.96105	0.539
7.0012	0.492
7.04135	0.387
7.0815	0.404
7.12165	0.419
7.16179	0.313
7.20194	0.38
7.24209	0.517
7.28224	0.512
7.32239	0.455
7.36253	0.43
7.40268	0.328
7.44283	0.454
7.48298	0.641
7.52313	0.717
7.56327	0.721
7.60342	0.694
7.64357	0.631
7.68372	0.505
7.72387	0.378
7.76401	0.315
7.80416	0.212
7.84431	0.115
7.88446	0.046
7.92461	0.031
7.96475	0.026
8.0049	0.041
8.04505	0.091
8.0852	0.215
8.12535	0.353
8.16549	0.479
8.20564	0.579
8.24579	0.637
8.28594	0.674
8.32609	0.684
8.36623	0.677
8.40638	0.632
8.44653	0.564
8.48668	0.417
8.52683	0.273
8.56697	0.15
8.60712	0.155
8.64727	0.23
8.68742	0.322
8.72757	0.407
8.76771	0.449
8.80786	0.47
8.84801	0.477
8.88816	0.48
8.92831	0.48
8.96845	0.455
9.0086	0.397
9.04875	0.302
9.0889	0.235
9.12905	0.247
9.16919	0.28
9.20934	0.28
9.24949	0.245
9.28964	0.195
9.32979	0.145
9.36993	0.078
9.41008	0.043
9.45023	0.026
9.49038	0.02
9.53053	0.02
9.57067	0.02
9.61082	0.02
9.65097	0.02
9.69112	0.018
9.73127	0.016
9.77141	0.018
9.81156	0.018
9.85171	0.02
9.89186	0.018
9.93201	0.05
9.97215	0.095
10.0123	0.123
10.0524	0.126
10.0926	0.093
10.1327	0.066
10.1729	0.043
10.213	0.038
10.2532	0.036
10.2933	0.036
10.3335	0.036
10.3736	0.043
10.4138	0.056
10.4539	0.073
10.4941	0.1
10.5342	0.12
10.5744	0.136
10.6145	0.14
10.6547	0.141
10.6948	0.181
10.735	0.26
10.7751	0.378
10.8153	0.485
10.8554	0.584
10.8956	0.654
10.9357	0.704
10.9759	0.729
11.016	0.751
11.0561	0.757
11.0963	0.762
11.1364	0.769
11.1766	0.781
11.2167	0.801
11.2569	0.818
11.297	0.831
11.3372	0.843
11.3773	0.849
11.4175	0.853
11.4576	0.858
11.4978	0.863
11.5379	0.866
11.5781	0.868
11.6182	0.869
11.6584	0.869
11.6985	0.869
11.7387	0.868
11.7788	0.866
11.819	0.858
11.8591	0.848
11.8993	0.839
11.9394	0.831
11.9796	0.814
12.0197	0.787
12.0598	0.754
12.1	0.714
12.1401	0.669
12.1803	0.626
12.2204	0.559
12.2606	0.502
12.3007	0.474
12.3409	0.449
12.381	0.422
12.4212	0.378
12.4613	0.328
12.5015	0.287
12.5416	0.258
12.5818	0.25
12.6219	0.268
12.6621	0.307
12.7022	0.35
12.7424	0.392
12.7825	0.407
12.8227	0.409
12.8628	0.397
12.903	0.368
12.9431	0.338
12.9833	0.322
13.0234	0.3
13.0635	0.295
13.1037	0.293
13.1438	0.297
13.184	0.32
13.2241	0.363
13.2643	0.405
13.3044	0.452
13.3446	0.512
13.3847	0.569
13.4249	0.617
13.465	0.654
13.5052	0.692
13.5453	0.717
13.5855	0.734
13.6256	0.757
13.6658	0.769
13.7059	0.781
13.7461	0.787
13.7862	0.796
13.8264	0.801
13.8665	0.804
13.9067	0.808
13.9468	0.809
13.987	0.813
14.0271	0.813
14.0672	0.813
14.1074	0.814
14.1475	0.814
14.1877	0.816
14.2278	0.816
14.268	0.814
14.3081	0.814
14.3483	0.809
14.3884	0.806
14.4286	0.806
14.4687	0.801
14.5089	0.796
14.549	0.794
14.5892	0.791
14.6293	0.786
14.6695	0.782
14.7096	0.781
14.7498	0.779
14.7899	0.772
14.8301	0.764
14.8702	0.754
14.9104	0.742
14.9505	0.731
14.9907	0.716
15.0308	0.702
15.0709	0.676
15.1111	0.654
15.1512	0.644
15.1914	0.629
15.2315	0.627
15.2717	0.627
15.3118	0.627
15.352	0.629
15.3921	0.637
15.4323	0.646
15.4724	0.652
15.5126	0.656
15.5527	0.659
15.5929	0.667
15.633	0.669
15.6732	0.671
15.7133	0.677
15.7535	0.677
15.7936	0.679
15.8338	0.681
15.8739	0.682
15.9141	0.684
15.9542	0.686
15.9944	0.686
16.0345	0.686
