Infrared Spectrum: 1,2-BIS(P-CHLOROPHENYL SULFONYL) HYDRAZINE
Formula: C12 H10 Cl2 N2 O4 S2
CAS: 91962-00-4
State: SOLID (MINERAL OIL MULL)
Class: COBLENTZ
Instrument: Not specified, most likely a prism, grating, or hybrid spectrometer.
Sampling: TRANSMISSION
Resolution: 4
Origin: DOW CHEMICAL COMPANY
MICROMETERS	TRANSMITTANCE
2.02	0.247
2.06015	0.258
2.10031	0.263
2.14046	0.265
2.18062	0.27
2.22077	0.275
2.26092	0.278
2.30108	0.282
2.34123	0.285
2.38138	0.292
2.42154	0.297
2.46169	0.308
2.50185	0.328
2.542	0.332
2.58215	0.34
2.62231	0.352
2.66246	0.363
2.70261	0.367
2.74277	0.368
2.78292	0.365
2.82308	0.355
2.86323	0.342
2.90338	0.337
2.94354	0.343
2.98369	0.363
3.02384	0.397
3.064	0.325
3.10415	0.12
3.14431	0.17
3.18446	0.267
3.22461	0.283
3.26477	0.287
3.30492	0.282
3.34507	0.155
3.38523	0.023
3.42538	0.033
3.46554	0.04
3.50569	0.15
3.54584	0.465
3.586	0.53
3.62615	0.547
3.6663	0.54
3.70646	0.55
3.74661	0.559
3.78677	0.575
3.82692	0.59
3.86707	0.592
3.90723	0.614
3.94738	0.622
3.98754	0.637
4.02769	0.651
4.06784	0.659
4.108	0.664
4.14815	0.666
4.1883	0.646
4.22846	0.654
4.26861	0.671
4.30877	0.696
4.34892	0.702
4.38907	0.702
4.42923	0.709
4.46938	0.716
4.50953	0.721
4.54969	0.726
4.58984	0.731
4.63	0.737
4.67015	0.739
4.7103	0.744
4.75046	0.747
4.79061	0.761
4.83076	0.766
4.87092	0.774
4.91107	0.777
4.95123	0.786
4.99138	0.787
5.03153	0.792
5.07169	0.799
5.11184	0.803
5.15199	0.801
5.19215	0.746
5.2323	0.747
5.27246	0.809
5.31261	0.816
5.35276	0.818
5.39292	0.816
5.43307	0.819
5.47323	0.838
5.51338	0.834
5.55353	0.826
5.59369	0.803
5.63384	0.828
5.67399	0.848
5.71415	0.853
5.7543	0.859
5.79446	0.856
5.83461	0.849
5.87476	0.853
5.91492	0.856
5.95507	0.828
5.99522	0.796
6.03538	0.777
6.07553	0.801
6.11569	0.843
6.15584	0.856
6.19599	0.856
6.23615	0.739
6.2763	0.5
6.31645	0.397
6.35661	0.449
6.39676	0.611
6.43692	0.747
6.47707	0.806
6.51722	0.826
6.55738	0.834
6.59753	0.834
6.63768	0.838
6.67784	0.772
6.71799	0.597
6.75815	0.337
6.7983	0.108
6.83845	0.125
6.87861	0.24
6.91876	0.445
6.95891	0.662
6.99907	0.729
7.03922	0.604
7.07938	0.537
7.11953	0.492
7.15968	0.355
7.19984	0.392
7.23999	0.308
7.28015	0.337
7.3203	0.31
7.36045	0.133
7.40061	0.175
7.44076	0.213
7.48091	0.115
7.52107	0.15
7.56122	0.4
7.60138	0.559
7.64153	0.644
7.68168	0.691
7.72184	0.674
7.76199	0.505
7.80214	0.405
7.8423	0.599
7.88245	0.717
7.92261	0.786
7.96276	0.803
8.00291	0.819
8.04307	0.823
8.08322	0.819
8.12337	0.803
8.16353	0.779
8.20368	0.759
8.24384	0.721
8.28399	0.649
8.32414	0.557
8.3643	0.424
8.40445	0.196
8.4446	0.075
8.48476	0.138
8.52491	0.075
8.56507	0.038
8.60522	0.066
8.64537	0.103
8.68553	0.213
8.72568	0.382
8.76583	0.477
8.80599	0.589
8.84614	0.657
8.8863	0.691
8.92645	0.661
8.9666	0.559
9.00676	0.464
9.04691	0.383
9.08707	0.327
9.12722	0.212
9.16737	0.11
9.20753	0.118
9.24768	0.141
9.28783	0.31
9.32799	0.37
9.36814	0.475
9.4083	0.636
9.44845	0.704
9.4886	0.737
9.52876	0.759
9.56891	0.776
9.60906	0.784
9.64922	0.797
9.68937	0.818
9.72953	0.826
9.76968	0.831
9.80983	0.624
9.84999	0.412
9.89014	0.353
9.93029	0.672
9.97045	0.747
10.0106	0.797
10.0508	0.816
10.0909	0.824
10.1311	0.829
10.1712	0.831
10.2114	0.831
10.2515	0.821
10.2917	0.811
10.3318	0.762
10.372	0.791
10.4121	0.818
10.4523	0.794
10.4924	0.803
10.5326	0.821
10.5728	0.831
10.6129	0.843
10.6531	0.844
10.6932	0.839
10.7334	0.836
10.7735	0.824
10.8137	0.816
10.8538	0.801
10.894	0.791
10.9341	0.774
10.9743	0.764
11.0144	0.762
11.0546	0.776
11.0948	0.792
11.1349	0.811
11.1751	0.819
11.2152	0.831
11.2554	0.844
11.2955	0.854
11.3357	0.859
11.3758	0.866
11.416	0.873
11.4561	0.873
11.4963	0.869
11.5364	0.858
11.5766	0.854
11.6168	0.848
11.6569	0.843
11.6971	0.836
11.7372	0.829
11.7774	0.828
11.8175	0.821
11.8577	0.784
11.8978	0.714
11.938	0.594
11.9781	0.472
12.0183	0.338
12.0584	0.317
12.0986	0.202
12.1388	0.095
12.1789	0.225
12.2191	0.542
12.2592	0.637
12.2994	0.687
12.3395	0.687
12.3797	0.681
12.4198	0.692
12.46	0.717
12.5001	0.732
12.5403	0.737
12.5804	0.741
12.6206	0.737
12.6608	0.716
12.7009	0.692
12.7411	0.669
12.7812	0.636
12.8214	0.589
12.8615	0.517
12.9017	0.393
12.9418	0.257
12.982	0.178
13.0221	0.146
13.0623	0.103
13.1024	0.058
13.1426	0.028
13.1828	0.026
13.2229	0.068
13.2631	0.155
13.3032	0.29
13.3434	0.327
13.3835	0.308
13.4237	0.367
13.4638	0.497
13.504	0.595
13.5441	0.636
13.5843	0.652
13.6244	0.661
13.6646	0.656
13.7047	0.644
13.7449	0.621
13.7851	0.602
13.8252	0.587
13.8654	0.572
13.9055	0.562
13.9457	0.544
13.9858	0.514
14.026	0.465
14.0661	0.387
14.1063	0.277
14.1464	0.222
14.1866	0.208
14.2267	0.23
14.2669	0.233
14.3071	0.2
14.3472	0.168
14.3874	0.128
14.4275	0.1
14.4677	0.078
14.5078	0.07
14.548	0.068
14.5881	0.066
14.6283	0.07
14.6684	0.078
14.7086	0.09
14.7487	0.108
14.7889	0.123
14.8291	0.141
14.8692	0.15
14.9094	0.166
14.9495	0.183
14.9897	0.215
15.0298	0.24
15.07	0.247
15.1101	0.253
15.1503	0.263
15.1904	0.268
15.2306	0.273
15.2707	0.282
15.3109	0.29
15.3511	0.293
15.3912	0.295
15.4314	0.298
15.4715	0.298
15.5117	0.298
15.5518	0.293
15.592	0.282
15.6321	0.265
15.6723	0.245
15.7124	0.228
15.7526	0.223
15.7927	0.22
15.8329	0.223
15.8731	0.228
15.9132	0.228
