Infrared Spectrum: METHYLPHOSPHONOTHIOIC ACID, o,o-DIPENTYL ESTER
Formula: C11 H25 O2 P S
CAS: 91964-75-9
State: LIQUID
Class: COBLENTZ
Instrument: Not specified, most likely a prism, grating, or hybrid spectrometer.
Sampling: TRANSMISSION
Path length: LIQUID FILM BETWEEN KBr PLATES
Resolution: 4
Origin: G. A. M. S.
1/CM	TRANSMITTANCE
616.696	0.774
625.867	0.799
635.038	0.833
644.209	0.858
653.38	0.871
662.551	0.876
671.722	0.876
680.894	0.87
690.065	0.858
699.236	0.828
708.407	0.733
717.578	0.566
726.749	0.549
735.92	0.634
745.091	0.547
754.262	0.467
763.433	0.493
772.604	0.418
781.775	0.311
790.947	0.341
800.118	0.401
809.289	0.476
818.46	0.589
827.631	0.677
836.802	0.777
845.973	0.791
855.144	0.8
864.315	0.794
873.486	0.757
882.657	0.6311
891.828	0.368
901	0.217
910.171	0.202
919.342	0.271
928.513	0.302
937.684	0.282
946.855	0.345
956.026	0.541
965.197	0.478
974.368	0.2971
983.539	0.185
992.71	0.18
1001.88	0.197
1011.05	0.202
1020.22	0.202
1029.39	0.22
1038.57	0.211
1047.74	0.199
1056.91	0.223
1066.08	0.29
1075.25	0.334
1084.42	0.512
1093.59	0.666
1102.76	0.711
1111.93	0.689
1121.11	0.677
1130.28	0.719
1139.45	0.74
1148.62	0.728
1157.79	0.79
1166.96	0.822
1176.13	0.856
1185.3	0.859
1194.47	0.841
1203.65	0.791
1212.82	0.737
1221.99	0.779
1231.16	0.768
1240.33	0.731
1249.5	0.729
1258.67	0.811
1267.84	0.822
1277.01	0.787
1286.19	0.756
1295.36	0.5911
1304.53	0.473
1313.7	0.726
1322.87	0.861
1332.04	0.875
1341.21	0.862
1350.38	0.858
1359.55	0.85
1368.72	0.802
1377.9	0.677
1387.07	0.648
1396.24	0.76
1405.41	0.743
1414.58	0.652
1423.75	0.76
1432.92	0.745
1442.09	0.712
1451.26	0.645
1460.44	0.51
1469.61	0.455
1478.78	0.5919
1487.95	0.824
1497.12	0.873
1506.29	0.898
1515.46	0.908
1524.63	0.915
1533.8	0.919
1542.98	0.924
1552.15	0.927
1561.32	0.929
1570.49	0.929
1579.66	0.929
1588.83	0.932
1598	0.935
1607.17	0.938
1616.34	0.942
1625.52	0.942
1634.69	0.942
1643.86	0.944
1653.03	0.947
1662.2	0.949
1671.37	0.95
1680.54	0.947
1689.71	0.945
1698.88	0.942
1708.05	0.938
1717.23	0.936
1726.4	0.936
1735.57	0.939
1744.74	0.944
1753.91	0.947
1763.08	0.949
1772.25	0.95
1781.42	0.95
1790.59	0.95
1799.77	0.953
1808.94	0.955
1818.11	0.958
1827.28	0.964
1836.45	0.966
1845.62	0.969
1854.79	0.976
1863.96	0.978
1873.13	0.978
1882.31	0.979
1891.48	0.983
1900.65	0.984
1909.82	0.989
1918.99	0.992
1928.16	0.995
1937.33	0.996
1946.5	0.993
1955.67	0.984
1964.85	0.966
1974.02	0.979
1983.19	1.003
1992.36	1.001
2001.53	0.994
2010.7	0.992
2019.87	0.9895
2029.04	0.989
2038.21	0.987
2047.38	0.986
2056.56	0.986
2065.73	0.984
2074.9	0.984
2084.07	0.984
2093.24	0.984
2102.41	0.983
2111.58	0.983
2120.75	0.981
2129.92	0.981
2139.1	0.981
2148.27	0.981
2157.44	0.981
2166.61	0.981
2175.78	0.9801
2184.95	0.981
2194.12	0.979
2203.29	0.9784
2212.46	0.978
2221.64	0.976
2230.81	0.975
2239.98	0.973
2249.15	0.97
2258.32	0.969
2267.49	0.967
2276.66	0.9648
2285.83	0.962
2295	0.962
2304.18	0.9598
2313.35	0.959
2322.52	0.9584
2331.69	0.958
2340.86	0.956
2350.03	0.956
2359.2	0.955
2368.37	0.955
2377.54	0.953
2386.71	0.953
2395.89	0.953
2405.06	0.955
2414.23	0.9537
2423.4	0.953
2432.57	0.953
2441.74	0.953
2450.91	0.953
2460.08	0.953
2469.25	0.953
2478.43	0.953
2487.6	0.952
2496.77	0.9506
2505.94	0.95
2515.11	0.949
2524.28	0.947
2533.45	0.945
2542.62	0.9443
2551.79	0.944
2560.97	0.942
2570.14	0.9413
2579.31	0.9396
2588.48	0.9366
2597.65	0.9336
2606.82	0.9306
2615.99	0.9275
2625.16	0.9243
2634.33	0.9213
2643.51	0.918
2652.68	0.915
2661.85	0.9105
2671.02	0.9072
2680.19	0.9042
2689.36	0.9012
2698.53	0.8965
2707.7	0.8935
2716.87	0.8902
2726.05	0.8855
2735.22	0.8824
2744.39	0.8782
2753.56	0.875
2762.73	0.8702
2771.9	0.8654
2781.07	0.8596
2790.24	0.8544
2799.41	0.846
2808.58	0.837
2817.76	0.8248
2826.93	0.8105
2836.1	0.7911
2845.27	0.7532
2854.44	0.7059
2863.61	0.5584
2872.78	0.4828
2881.95	0.3881
2891.12	0.3642
2900.3	0.3648
2909.47	0.368
2918.64	0.3654
2927.81	0.3459
2936.98	0.3258
2946.15	0.2559
2955.32	0.24
2964.49	0.2296
2973.66	0.228
2982.84	0.226
2992.01	0.2306
3001.18	0.2614
3010.35	0.2981
3019.52	0.4416
3028.69	0.577
3037.86	0.663
3047.03	0.7764
3056.2	0.816
3065.38	0.8384
3074.55	0.8644
3083.72	0.8777
3092.89	0.8838
3102.06	0.8909
3111.23	0.8959
3120.4	0.9008
3129.57	0.9039
3138.74	0.9049
3147.91	0.905
3157.09	0.905
3166.26	0.907
3175.43	0.907
3184.6	0.908
3193.77	0.91
3202.94	0.9119
3212.11	0.913
3221.28	0.916
3230.45	0.918
3239.63	0.919
3248.8	0.919
3257.97	0.919
3267.14	0.921
3276.31	0.921
3285.48	0.921
3294.65	0.921
3303.82	0.921
3312.99	0.921
3322.17	0.921
3331.34	0.921
3340.51	0.921
3349.68	0.921
3358.85	0.921
3368.02	0.921
3377.19	0.921
3386.36	0.921
3395.53	0.921
3404.71	0.921
3413.88	0.9209
3423.05	0.921
3432.22	0.919
3441.39	0.921
3450.56	0.921
3459.73	0.921
3468.9	0.921
3478.07	0.921
3487.24	0.921
3496.42	0.921
3505.59	0.921
3514.76	0.921
3523.93	0.921
3533.1	0.921
3542.27	0.922
3551.44	0.922
3560.61	0.922
3569.78	0.922
3578.96	0.922
3588.13	0.922
3597.3	0.922
3606.47	0.922
3615.64	0.922
3624.81	0.922
3633.98	0.922
3643.15	0.922
3652.32	0.921
3661.5	0.921
3670.67	0.921
3679.84	0.921
3689.01	0.921
3698.18	0.921
3707.35	0.921
3716.52	0.919
3725.69	0.919
3734.86	0.919
3744.04	0.9193
3753.21	0.9207
3762.38	0.919
3771.55	0.919
3780.72	0.919
3789.89	0.919
3799.06	0.918
3808.23	0.918
3817.4	0.918
3826.57	0.916
3835.75	0.916
3844.92	0.915
3854.09	0.9146
3863.26	0.913
3872.43	0.912
3881.6	0.912
3890.77	0.91
3899.94	0.908
3909.11	0.9078
3918.29	0.9065
3927.46	0.904
3936.63	0.9035
3945.8	0.902
3954.97	0.901
3964.14	0.899
3973.31	0.899
3982.48	0.899
3991.65	0.899
