Infrared Spectrum: PHOSPHONOTHIOIC ACID, METHYL-, o,o-DIISOPENTYL ESTER
Formula: C11 H25 O2 P S
CAS: 91964-74-8
State: LIQUID
Class: COBLENTZ
Instrument: Not specified, most likely a prism, grating, or hybrid spectrometer.
Sampling: TRANSMISSION
Path length: LIQUID FILM BETWEEN KBr PLATES
Resolution: 4
Origin: G. A. M. S.
1/CM	TRANSMITTANCE
601.469	0.651
610.635	0.648
619.8	0.649
628.966	0.694
638.132	0.783
647.297	0.857
656.463	0.877
665.629	0.877
674.795	0.872
683.96	0.861
693.126	0.844
702.292	0.82
711.457	0.772
720.623	0.68
729.789	0.4431
738.954	0.276
748.12	0.215
757.286	0.178
766.452	0.118
775.617	0.069
784.783	0.062
793.949	0.058
803.114	0.145
812.28	0.3469
821.446	0.516
830.611	0.552
839.777	0.562
848.943	0.605
858.108	0.631
867.274	0.588
876.44	0.427
885.606	0.368
894.771	0.0471
903.937	0.003
913.103	0.001
922.268	0.006
931.434	0.078
940.6	0.25
949.765	0.27
958.931	0.224
968.097	0.069
977.262	0.001
986.428	0
995.594	0
1004.76	0.003
1013.93	0.003
1023.09	0.004
1032.26	0.006
1041.42	0.004
1050.59	0.003
1059.75	0.006
1068.92	0.036
1078.09	0.256
1087.25	0.405
1096.42	0.474
1105.58	0.503
1114.75	0.517
1123.91	0.503
1133.08	0.407
1142.25	0.371
1151.41	0.471
1160.58	0.488
1169.74	0.491
1178.91	0.668
1188.07	0.748
1197.24	0.758
1206.4	0.745
1215.57	0.718
1224.74	0.665
1233.9	0.517
1243.07	0.588
1252.23	0.642
1261.4	0.635
1270.56	0.66
1279.73	0.677
1288.9	0.571
1298.06	0.236
1307.23	0.4899
1316.39	0.715
1325.56	0.738
1334.72	0.709
1343.89	0.694
1353.06	0.698
1362.22	0.5291
1371.39	0.3559
1380.55	0.382
1389.72	0.287
1398.88	0.58
1408.05	0.4361
1417.22	0.4229
1426.38	0.576
1435.55	0.579
1444.71	0.5191
1453.88	0.2941
1463.04	0.142
1472.21	0.152
1481.38	0.399
1490.54	0.685
1499.71	0.774
1508.87	0.814
1518.04	0.831
1527.2	0.843
1536.37	0.852
1545.54	0.855
1554.7	0.855
1563.87	0.857
1573.03	0.858
1582.2	0.86
1591.36	0.863
1600.53	0.864
1609.7	0.869
1618.86	0.872
1628.03	0.874
1637.19	0.875
1646.36	0.878
1655.52	0.878
1664.69	0.878
1673.86	0.878
1683.02	0.88
1692.19	0.88
1701.35	0.881
1710.52	0.878
1719.68	0.875
1728.85	0.874
1738.02	0.875
1747.18	0.88
1756.35	0.883
1765.51	0.883
1774.68	0.88
1783.84	0.875
1793.01	0.869
1802.18	0.861
1811.34	0.863
1820.51	0.872
1829.67	0.88
1838.84	0.889
1848	0.897
1857.17	0.903
1866.33	0.909
1875.5	0.913
1884.67	0.915
1893.83	0.915
1903	0.913
1912.16	0.918
1921.33	0.924
1930.49	0.927
1939.66	0.926
1948.83	0.915
1957.99	0.884
1967.16	0.923
1976.32	0.933
1985.49	0.932
1994.65	0.932
2003.82	0.927
2012.99	0.926
2022.15	0.9238
2031.32	0.921
2040.48	0.9195
2049.65	0.9165
2058.81	0.9127
2067.98	0.9097
2077.15	0.906
2086.31	0.904
2095.48	0.9063
2104.64	0.91
2113.81	0.913
2122.97	0.9135
2132.14	0.915
2141.31	0.9145
2150.47	0.913
2159.64	0.913
2168.8	0.912
2177.97	0.9115
2187.13	0.9097
2196.3	0.9084
2205.47	0.9067
2214.63	0.906
2223.8	0.904
2232.96	0.903
2242.13	0.901
2251.29	0.9007
2260.46	0.9
2269.63	0.898
2278.79	0.898
2287.96	0.895
2297.12	0.894
2306.29	0.892
2315.45	0.8914
2324.62	0.889
2333.79	0.8884
2342.95	0.887
2352.12	0.887
2361.28	0.887
2370.45	0.887
2379.61	0.887
2388.78	0.887
2397.95	0.8877
2407.11	0.8893
2416.28	0.89
2425.44	0.8897
2434.61	0.89
2443.77	0.8897
2452.94	0.889
2462.11	0.889
2471.27	0.889
2480.44	0.887
2489.6	0.887
2498.77	0.887
2507.93	0.884
2517.1	0.883
2526.26	0.8793
2535.43	0.8747
2544.6	0.8683
2553.76	0.8636
2562.93	0.86
2572.09	0.8563
2581.26	0.8533
2590.42	0.8483
2599.59	0.847
2608.76	0.844
2617.92	0.844
2627.09	0.843
2636.25	0.8406
2645.42	0.838
2654.58	0.8346
2663.75	0.8295
2672.92	0.8222
2682.08	0.8176
2691.25	0.8116
2700.41	0.8029
2709.58	0.7939
2718.74	0.7849
2727.91	0.778
2737.08	0.778
2746.24	0.778
2755.41	0.7776
2764.57	0.7732
2773.74	0.7672
2782.9	0.7568
2792.07	0.7466
2801.24	0.7326
2810.4	0.7126
2819.57	0.6829
2828.73	0.6354
2837.9	0.5587
2847.06	0.5103
2856.23	0.4307
2865.4	0.3189
2874.56	0.1842
2883.73	0.0968
2892.89	0.092
2902.06	0.0883
2911.22	0.0625
2920.39	0.0447
2929.56	0.0377
2938.72	0.0326
2947.89	0.0266
2957.05	0.024
2966.22	0.0294
2975.38	0.0436
2984.55	0.077
2993.72	0.1583
3002.88	0.2442
3012.05	0.3557
3021.21	0.4787
3030.38	0.5888
3039.54	0.6816
3048.71	0.7436
3057.88	0.7741
3067.04	0.7942
3076.21	0.8048
3085.37	0.8115
3094.54	0.814
3103.7	0.814
3112.87	0.815
3122.04	0.815
3131.2	0.815
3140.37	0.815
3149.53	0.8145
3158.7	0.8131
3167.86	0.811
3177.03	0.809
3186.2	0.809
3195.36	0.813
3204.53	0.8214
3213.69	0.8279
3222.86	0.833
3232.02	0.838
3241.19	0.842
3250.35	0.845
3259.52	0.8465
3268.69	0.847
3277.85	0.849
3287.02	0.849
3296.18	0.849
3305.35	0.85
3314.51	0.85
3323.68	0.85
3332.85	0.851
3342.01	0.85
3351.18	0.852
3360.34	0.852
3369.51	0.852
3378.67	0.852
3387.84	0.852
3397.01	0.85
3406.17	0.85
3415.34	0.85
3424.5	0.851
3433.67	0.85
3442.83	0.85
3452	0.85
3461.17	0.8495
3470.33	0.849
3479.5	0.849
3488.66	0.849
3497.83	0.849
3506.99	0.849
3516.16	0.85
3525.33	0.85
3534.49	0.8511
3543.66	0.852
3552.82	0.852
3561.99	0.854
3571.15	0.854
3580.32	0.855
3589.49	0.855
3598.65	0.857
3607.82	0.857
3616.98	0.857
3626.15	0.857
3635.31	0.857
3644.48	0.857
3653.65	0.8576
3662.81	0.858
3671.98	0.858
3681.14	0.858
3690.31	0.858
3699.47	0.858
3708.64	0.8574
3717.81	0.8558
3726.97	0.8544
3736.14	0.854
3745.3	0.852
3754.47	0.85
3763.63	0.849
3772.8	0.847
3781.97	0.846
3791.13	0.8448
3800.3	0.844
3809.46	0.843
3818.63	0.843
3827.79	0.841
3836.96	0.84
3846.13	0.8374
3855.29	0.835
3864.46	0.8328
3873.62	0.8314
3882.79	0.8298
3891.95	0.829
3901.12	0.829
3910.28	0.831
3919.45	0.831
3928.62	0.832
3937.78	0.834
3946.95	0.8346
3956.11	0.835
3965.28	0.837
3974.44	0.837
3983.61	0.838
3992.78	0.838
