Infrared Spectrum: FORMAMIDE, N-(4-AMINO-2,6-DICHLOROPYRIMIDIN-5-YL)-N-BENZYL-
Formula: C12 H10 Cl2 N4 O
CAS: 91962-06-0
State: SOLID (0.8 mg / 650 mg KBr DISC)
Class: COBLENTZ III
Instrument: PERKIN-ELMER 21 (GRATING)
Instrument parameters: FILTER AT 2490, 980 CM^-^1. GRATING 4000-1428 CM^-^1, NaCl PRISM 1428-650 CM^-^1
Sampling: TRANSMISSION
Resolution: 2
Origin: SOUTHERN RESEARCH INSTITUTE
1/CM	TRANSMITTANCE
642.492	0.706
651.756	0.7597
661.02	0.8318
670.284	0.846
679.547	0.8498
688.811	0.6838
698.075	0.7469
707.339	0.6263
716.603	0.8192
725.867	0.843
735.131	0.7664
744.395	0.5991
753.658	0.7854
762.922	0.846
772.186	0.7921
781.45	0.6121
790.714	0.783
799.978	0.725
809.242	0.8658
818.505	0.871
827.769	0.8666
837.033	0.8284
846.297	0.7081
855.561	0.664
864.825	0.4661
874.089	0.6537
883.353	0.8445
892.616	0.8771
901.88	0.8917
911.144	0.8772
920.408	0.8502
929.672	0.858
938.936	0.8345
948.2	0.8101
957.463	0.8579
966.727	0.862
975.991	0.8465
985.255	0.8225
994.519	0.6575
1003.78	0.4303
1013.05	0.4034
1022.31	0.8338
1031.57	0.831
1040.84	0.8578
1050.1	0.8599
1059.37	0.8484
1068.63	0.8273
1077.89	0.8091
1087.16	0.6922
1096.42	0.8322
1105.69	0.839
1114.95	0.8292
1124.21	0.8327
1133.48	0.833
1142.74	0.8225
1152	0.8055
1161.27	0.7737
1170.53	0.7607
1179.8	0.7034
1189.06	0.6431
1198.32	0.574
1207.59	0.6036
1216.85	0.5887
1226.12	0.4192
1235.38	0.2675
1244.64	0.443
1253.91	0.4239
1263.17	0.3951
1272.43	0.2834
1281.7	0.2548
1290.96	0.5314
1300.23	0.584
1309.49	0.6617
1318.75	0.624
1328.02	0.5848
1337.28	0.6027
1346.55	0.4907
1355.81	0.5439
1365.07	0.4287
1374.34	0.258
1383.6	0.1393
1392.87	0.5262
1402.13	0.6009
1411.39	0.5408
1420.66	0.497
1429.92	0.712
1439.18	0.7102
1448.45	0.6972
1457.71	0.4317
1466.98	0.6827
1476.24	0.6502
1485.5	0.6178
1494.77	0.4301
1504.03	0.4736
1513.3	0.66
1522.56	0.6126
1531.82	0.4987
1541.09	0.2454
1550.35	0.1505
1559.61	0.1989
1568.88	0.17
1578.14	0.4456
1587.41	0.6549
1596.67	0.7217
1605.93	0.7029
1615.2	0.6482
1624.46	0.5515
1633.73	0.4558
1642.99	0.4039
1652.25	0.2335
1661.52	0.1559
1670.78	0.216
1680.04	0.1368
1689.31	0.0695
1698.57	0.2017
1707.84	0.4651
1717.1	0.6343
1726.36	0.752
1735.63	0.8044
1744.89	0.8496
1754.16	0.8748
1763.42	0.882
1772.68	0.8894
1781.95	0.896
1791.21	0.906
1800.48	0.906
1809.74	0.912
1819	0.907
1828.27	0.915
1837.53	0.921
1846.79	0.923
1856.06	0.923
1865.32	0.923
1874.59	0.9171
1883.85	0.917
1893.11	0.9159
1902.38	0.9207
1911.64	0.921
1920.91	0.923
1930.17	0.9237
1939.43	0.923
1948.7	0.9183
1957.96	0.914
1967.22	0.911
1976.49	0.912
1985.75	0.914
1995.02	0.916
2004.28	0.916
2013.54	0.916
2022.81	0.915
2032.07	0.914
2041.34	0.912
2050.6	0.912
2059.86	0.912
2069.13	0.914
2078.39	0.912
2087.66	0.912
2096.92	0.914
2106.18	0.914
2115.45	0.914
2124.71	0.911
2133.97	0.906
2143.24	0.9032
2152.5	0.907
2161.77	0.9085
2171.03	0.911
2180.29	0.91
2189.56	0.91
2198.82	0.911
2208.09	0.911
2217.35	0.911
2226.61	0.911
2235.88	0.911
2245.14	0.907
2254.4	0.904
2263.67	0.9038
2272.93	0.9022
2282.2	0.903
2291.46	0.904
2300.72	0.904
2309.99	0.904
2319.25	0.904
2328.52	0.904
2337.78	0.9028
2347.04	0.9
2356.31	0.896
2365.57	0.896
2374.83	0.898
2384.1	0.9
2393.36	0.9
2402.63	0.898
2411.89	0.895
2421.15	0.895
2430.42	0.895
2439.68	0.891
2448.95	0.89
2458.21	0.888
2467.47	0.887
2476.74	0.884
2486	0.8513
2495.27	0.8832
2504.53	0.884
2513.79	0.884
2523.06	0.884
2532.32	0.886
2541.58	0.886
2550.85	0.886
2560.11	0.886
2569.38	0.886
2578.64	0.884
2587.9	0.884
2597.17	0.8815
2606.43	0.8775
2615.7	0.8723
2624.96	0.869
2634.22	0.867
2643.49	0.867
2652.75	0.867
2662.01	0.866
2671.28	0.863
2680.54	0.8618
2689.81	0.8561
2699.07	0.8425
2708.33	0.8193
2717.6	0.817
2726.86	0.8381
2736.13	0.847
2745.39	0.851
2754.65	0.853
2763.92	0.853
2773.18	0.853
2782.44	0.8498
2791.71	0.847
2800.97	0.847
2810.24	0.847
2819.5	0.8452
2828.76	0.8418
2838.03	0.8328
2847.29	0.8203
2856.56	0.8008
2865.82	0.7783
2875.08	0.757
2884.35	0.7602
2893.61	0.7775
2902.88	0.78
2912.14	0.7768
2921.4	0.76
2930.67	0.7525
2939.93	0.7719
2949.19	0.785
2958.46	0.785
2967.72	0.7808
2976.99	0.7758
2986.25	0.7705
2995.51	0.7638
3004.78	0.7514
3014.04	0.7268
3023.31	0.7106
3032.57	0.6738
3041.83	0.661
3051.1	0.665
3060.36	0.6421
3069.62	0.613
3078.89	0.616
3088.15	0.5983
3097.42	0.5766
3106.68	0.5401
3115.94	0.5121
3125.21	0.4709
3134.47	0.4342
3143.74	0.3688
3153	0.3385
3162.26	0.333
3171.53	0.3477
3180.79	0.3909
3190.06	0.4496
3199.32	0.4819
3208.58	0.4985
3217.85	0.5139
3227.11	0.5674
3236.37	0.6106
3245.64	0.6482
3254.9	0.649
3264.17	0.6418
3273.43	0.6221
3282.69	0.5951
3291.96	0.5459
3301.22	0.5053
3310.49	0.4396
3319.75	0.4035
3329.01	0.3903
3338.28	0.3608
3347.54	0.3335
3356.8	0.2956
3366.07	0.285
3375.33	0.349
3384.6	0.4878
3393.86	0.5875
3403.12	0.6434
3412.39	0.6833
3421.65	0.7247
3430.92	0.7392
3440.18	0.747
3449.44	0.7522
3458.71	0.7575
3467.97	0.7657
3477.23	0.7755
3486.5	0.7887
3495.76	0.797
3505.03	0.805
3514.29	0.8099
3523.55	0.8225
3532.82	0.8305
3542.08	0.835
3551.35	0.8395
3560.61	0.8435
3569.87	0.85
3579.14	0.854
3588.4	0.858
3597.67	0.8652
3606.93	0.8742
3616.19	0.882
3625.46	0.884
3634.72	0.884
3643.98	0.884
3653.25	0.883
3662.51	0.884
3671.78	0.8862
3681.04	0.888
3690.3	0.89
3699.57	0.891
3708.83	0.89
3718.1	0.89
3727.36	0.888
3736.62	0.887
3745.89	0.886
3755.15	0.8868
3764.41	0.884
3773.68	0.884
3782.94	0.883
3792.21	0.8815
3801.47	0.878
3810.73	0.878
3820	0.878
3829.26	0.8775
3838.53	0.8748
3847.79	0.871
3857.05	0.87
3866.32	0.871
3875.58	0.8715
3884.84	0.873
3894.11	0.8708
3903.37	0.8702
3912.64	0.871
