Infrared Spectrum: ESTRONE-3-O-IODOBENZOATE
Formula: C25 H25 I O3
CAS: 91999-14-3
State: SOLUTION (CS2 SOLVENT)
Melting point: 194-195 C (CORR.)
Class: COBLENTZ
Instrument: Not specified, most likely a prism, grating, or hybrid spectrometer.
Sampling: TRANSMISSION
Path length: 0.1 CM
Resolution: 4
Origin: DEPARTMENT OF PHARMACOLOGY, THE STATE UNIVERSITY OF IOWA, IOWA
MICROMETERS	TRANSMITTANCE
1.955	0.786
1.99288	0.785
2.03075	0.782
2.06863	0.78
2.10651	0.779
2.14439	0.779
2.18226	0.777
2.22014	0.776
2.25802	0.774
2.2959	0.773
2.33377	0.773
2.37165	0.771
2.40953	0.771
2.44741	0.771
2.48528	0.77
2.52316	0.768
2.56104	0.768
2.59892	0.768
2.63679	0.768
2.67467	0.767
2.71255	0.765
2.75043	0.762
2.7883	0.757
2.82618	0.748
2.86406	0.743
2.90194	0.751
2.93981	0.752
2.97769	0.755
3.01557	0.757
3.05344	0.754
3.09132	0.752
3.1292	0.751
3.16708	0.745
3.20495	0.724
3.24283	0.697
3.28071	0.693
3.31859	0.361
3.35646	0.28
3.39434	0.37
3.43222	0.444
3.4701	0.554
3.50797	0.674
3.54585	0.72
3.58373	0.739
3.62161	0.746
3.65948	0.752
3.69736	0.755
3.73524	0.757
3.77312	0.76
3.81099	0.761
3.84887	0.765
3.88675	0.768
3.92462	0.77
3.9625	0.773
4.00038	0.773
4.03826	0.771
4.07613	0.774
4.11401	0.774
4.15189	0.774
4.18977	0.774
4.22764	0.774
4.26552	0.774
4.3034	0.777
4.34128	0.783
4.37915	0.786
4.41703	0.788
4.45491	0.788
4.49279	0.789
4.53066	0.791
4.56854	0.794
4.60642	0.794
4.6443	0.795
4.68217	0.795
4.72005	0.792
4.75793	0.788
4.79581	0.785
4.83368	0.782
4.87156	0.782
4.90944	0.78
4.94731	0.78
4.98519	0.78
5.02307	0.776
5.06095	0.768
5.09882	0.762
5.1367	0.761
5.17458	0.761
5.21246	0.765
5.25033	0.762
5.28821	0.757
5.32609	0.758
5.36397	0.755
5.40184	0.739
5.43972	0.711
5.4776	0.64
5.51548	0.444
5.55335	0.423
5.59123	0.425
5.62911	0.109
5.66699	0.084
5.70486	0.088
5.74274	0.322
5.78062	0.54
5.8185	0.6
5.85637	0.645
5.89425	0.675
5.93213	0.699
5.97	0.709
6.00788	0.714
6.04576	0.717
6.08364	0.718
6.12151	0.72
6.15939	0.721
6.19727	0.722
6.23515	0.725
6.27302	0.728
6.3109	0.731
6.34878	0.733
6.38666	0.736
6.42453	0.736
6.46241	0.737
6.50029	0.737
6.53817	0.737
6.57604	0.739
6.61392	0.74
6.6518	0.742
6.68968	0.745
6.72755	0.748
6.76543	0.749
6.80331	0.752
6.84118	0.754
6.87906	0.755
6.91694	0.757
6.95482	0.758
6.99269	0.758
7.03057	0.757
7.06845	0.758
7.10633	0.757
7.1442	0.749
7.18208	0.717
7.21996	0.663
7.25784	0.629
7.29571	0.645
7.33359	0.653
7.37147	0.653
7.40935	0.645
7.44722	0.637
7.4851	0.64
7.52298	0.644
7.56086	0.629
7.59873	0.591
7.63661	0.515
7.67449	0.317
7.71237	0.208
7.75024	0.165
7.78812	0.18
7.826	0.197
7.86387	0.253
7.90175	0.251
7.93963	0.139
7.97751	0.109
8.01538	0.074
8.05326	0.102
8.09114	0.112
8.12902	0.097
8.16689	0.109
8.20477	0.128
8.24265	0.139
8.28053	0.32
8.3184	0.395
8.35628	0.419
8.39416	0.428
8.43204	0.432
8.46991	0.484
8.50779	0.474
8.54567	0.447
8.58355	0.325
8.62142	0.168
8.6593	0.282
8.69718	0.4
8.73506	0.401
8.77293	0.371
8.81081	0.36
8.84869	0.397
8.88656	0.417
8.92444	0.416
8.96232	0.404
9.0002	0.389
9.03807	0.4
9.07595	0.402
9.11383	0.337
9.15171	0.3
9.18958	0.228
9.22746	0.158
9.26534	0.211
9.30322	0.417
9.34109	0.514
9.37897	0.506
9.41685	0.474
9.45473	0.459
9.4926	0.457
9.53048	0.345
9.56836	0.278
9.60624	0.339
9.64411	0.459
9.68199	0.484
9.71987	0.428
9.75774	0.2
9.79562	0.127
9.8335	0.214
9.87138	0.253
9.90925	0.419
9.94713	0.522
9.98501	0.577
10.0229	0.595
10.0608	0.601
10.0986	0.601
10.1365	0.607
10.1744	0.625
10.2123	0.64
10.2502	0.644
10.288	0.648
10.3259	0.659
10.3638	0.662
10.4017	0.662
10.4395	0.668
10.4774	0.675
10.5153	0.681
10.5532	0.691
10.591	0.702
10.6289	0.706
10.6668	0.702
10.7047	0.696
10.7426	0.697
10.7804	0.703
10.8183	0.68
10.8562	0.58
10.8941	0.567
10.9319	0.6
10.9698	0.614
11.0077	0.564
11.0456	0.511
11.0835	0.505
11.1213	0.503
11.1592	0.503
11.1971	0.506
11.235	0.518
11.2728	0.534
11.3107	0.543
11.3486	0.546
11.3865	0.546
11.4244	0.546
11.4622	0.546
11.5001	0.546
11.538	0.546
11.5759	0.548
11.6137	0.549
11.6516	0.555
11.6895	0.565
11.7274	0.579
11.7652	0.597
11.8031	0.61
11.841	0.628
11.8789	0.64
11.9168	0.663
11.9546	0.666
11.9925	0.668
12.0304	0.666
12.0683	0.663
12.1061	0.594
12.144	0.549
12.1819	0.534
12.2198	0.555
12.2577	0.61
12.2955	0.65
12.3334	0.687
12.3713	0.706
12.4092	0.714
12.447	0.721
12.4849	0.721
12.5228	0.717
12.5607	0.691
12.5986	0.65
12.6364	0.602
12.6743	0.595
12.7122	0.597
12.7501	0.601
12.7879	0.638
12.8258	0.662
12.8637	0.677
12.9016	0.68
12.9394	0.669
12.9773	0.623
13.0152	0.613
13.0531	0.64
13.091	0.665
13.1288	0.681
13.1667	0.685
13.2046	0.682
13.2425	0.668
13.2803	0.62
13.3182	0.548
13.3561	0.465
13.394	0.314
13.4319	0.186
13.4697	0.149
13.5076	0.177
13.5455	0.435
13.5834	0.567
13.6212	0.61
13.6591	0.647
13.697	0.678
13.7349	0.687
13.7727	0.682
13.8106	0.653
13.8485	0.644
13.8864	0.662
13.9243	0.696
13.9621	0.722
14	0.733
14.0379	0.731
14.0758	0.733
14.1136	0.733
14.1515	0.733
14.1894	0.733
14.2273	0.733
14.2652	0.721
14.303	0.7
14.3409	0.684
14.3788	0.674
14.4167	0.668
14.4545	0.656
14.4924	0.629
14.5303	0.602
14.5682	0.567
14.6061	0.568
14.6439	0.594
14.6818	0.645
14.7197	0.7
14.7576	0.731
14.7954	0.736
14.8333	0.74
14.8712	0.791
14.9091	0.798
14.9469	0.8
