Infrared Spectrum: PHENOL, 2-BROMO-4-PHENYL-
Formula: C12 H9 Br O
CAS: 92-03-5
State: SOLUTION (10% CCl4 FOR 3800-1333, 10% CS2 FOR 1333-430 CM^-^1)
Class: COBLENTZ III
Instrument: Not specified, most likely a prism, grating, or hybrid spectrometer.
Sampling: TRANSMISSION
Path length: 0.011 CM, 0.011 CM
Resolution: 4
Origin: DOW CHEMICAL COMPANY
1/CM	TRANSMITTANCE
416.509	0.828
425.048	0.825
433.587	0.83
442.126	0.836
450.665	0.837
459.204	0.837
467.743	0.81
476.281	0.595
484.82	0.862
493.359	0.926
501.898	0.903
510.437	0.896
518.976	0.8251
527.515	0.706
536.054	0.935
544.593	0.93
553.132	0.983
561.671	0.881
570.21	0.935
578.749	0.53
587.288	0.88
595.826	0.992
604.365	1.008
612.904	1.002
621.443	1.004
629.982	0.991
638.521	0.968
647.06	0.94
655.599	0.92
664.138	0.868
672.677	0.522
681.216	0.858
689.755	0.5652
698.294	0.1318
706.832	0.694
715.371	0.833
723.91	0.846
732.449	0.3381
740.988	0.875
749.527	0.83
758.066	0.3139
766.605	0.2676
775.144	0.898
783.683	0.939
792.222	0.948
800.761	0.939
809.3	0.886
817.839	0.791
826.377	0.161
834.916	0.701
843.455	0.797
851.994	0.6915
860.533	0.775
869.072	0.766
877.611	0.4561
886.15	0.828
894.689	0.942
903.228	0.955
911.767	0.908
920.306	0.973
928.845	0.971
937.384	0.974
945.922	0.94
954.461	0.967
963	0.967
971.539	0.974
980.078	0.963
988.617	0.964
997.156	0.918
1005.69	0.943
1014.23	0.927
1022.77	0.8158
1031.31	0.7841
1039.85	0.3571
1048.39	0.646
1056.93	0.96
1065.47	0.948
1074.01	0.83
1082.55	0.937
1091.08	0.936
1099.62	0.902
1108.16	0.914
1116.7	0.921
1125.24	0.893
1133.78	0.858
1142.32	0.837
1150.86	0.788
1159.4	0.675
1167.93	0.4809
1176.47	0.1519
1185.01	0.026
1193.55	0.3038
1202.09	0.6579
1210.63	0.825
1219.17	0.884
1227.71	0.889
1236.25	0.805
1244.78	0.548
1253.32	0.692
1261.86	0.573
1270.4	0.1712
1278.94	0.447
1287.48	0.143
1296.02	0.6318
1304.56	0.803
1313.1	0.788
1321.64	0.779
1330.17	0.7
1338.71	0.5809
1347.25	0.858
1355.79	0.908
1364.33	0.933
1372.87	0.933
1381.41	0.905
1389.95	0.902
1398.49	0.809
1407.02	0.929
1415.56	0.906
1424.1	0.906
1432.64	0.917
1441.18	0.884
1449.72	0.6691
1458.26	0.689
1466.8	0.429
1475.34	0.347
1483.87	0.001
1492.41	0.5021
1500.95	0.5249
1509.49	0.196
1518.03	0.444
1526.57	0.61
1535.11	0.515
1543.65	0.465
1552.19	0.453
1560.73	0.462
1569.26	0.45
1577.8	0.53
1586.34	0.605
1594.88	0.571
1603.42	0.419
1611.96	0.5894
1620.5	0.89
1629.04	0.939
1637.58	0.954
1646.11	0.946
1654.65	0.943
1663.19	0.96
1671.73	0.948
1680.27	0.964
1688.81	0.97
1697.35	0.973
1705.89	0.973
1714.43	0.977
1722.96	0.973
1731.5	0.971
1740.04	0.957
1748.58	0.926
1757.12	0.926
1765.66	0.946
1774.2	0.963
1782.74	0.973
1791.28	0.963
1799.82	0.935
1808.35	0.96
1816.89	0.961
1825.43	0.957
1833.97	0.97
1842.51	0.968
1851.05	0.97
1859.59	0.961
1868.13	0.957
1876.67	0.926
1885.2	0.935
1893.74	0.892
1902.28	0.967
1910.82	0.977
1919.36	0.979
1927.9	0.971
1936.44	0.963
1944.98	0.926
1953.52	0.961
1962.05	0.949
1970.59	0.973
1979.13	0.977
1987.67	0.977
1996.21	0.968
2004.75	0.982
2013.29	0.977
2021.83	0.979
2030.37	0.98
2038.91	0.985
2047.44	0.988
2055.98	0.989
2064.52	0.988
2073.06	0.984
2081.6	0.989
2090.14	0.9875
2098.68	0.986
2107.22	0.988
2115.76	0.988
2124.29	0.985
2132.83	0.983
2141.37	0.9855
2149.91	0.9861
2158.45	0.994
2166.99	0.994
2175.53	0.9915
2184.07	0.988
2192.61	0.99
2201.14	0.985
2209.68	0.985
2218.22	0.982
2226.76	0.982
2235.3	0.982
2243.84	0.982
2252.38	0.979
2260.92	0.974
2269.46	0.973
2277.99	0.9651
2286.53	0.958
2295.07	0.96
2303.61	0.963
2312.15	0.9566
2320.69	0.943
2329.23	0.974
2337.77	0.9717
2346.31	0.9575
2354.85	0.958
2363.38	0.945
2371.92	0.991
2380.46	0.9809
2389	0.9859
2397.54	0.9863
2406.08	0.991
2414.62	0.988
2423.16	0.9851
2431.7	0.982
2440.23	0.9772
2448.77	0.9651
2457.31	0.9679
2465.85	0.968
2474.39	0.9739
2482.93	0.9779
2491.47	0.979
2500.01	0.9766
2508.55	0.979
2517.08	0.9796
2525.62	0.976
2534.16	0.9809
2542.7	0.98
2551.24	0.9779
2559.78	0.98
2568.32	0.98
2576.86	0.976
2585.4	0.9748
2593.94	0.9792
2602.47	0.977
2611.01	0.979
2619.55	0.9753
2628.09	0.9799
2636.63	0.985
2645.17	0.982
2653.71	0.9782
2662.25	0.9769
2670.79	0.9824
2679.32	0.983
2687.86	0.982
2696.4	0.988
2704.94	0.986
2713.48	0.988
2722.02	0.986
2730.56	0.983
2739.1	0.9842
2747.64	0.982
2756.17	0.982
2764.71	0.983
2773.25	0.98
2781.79	0.98
2790.33	0.9824
2798.87	0.9878
2807.41	0.988
2815.95	0.9878
2824.49	0.988
2833.03	0.985
2841.56	0.983
2850.1	0.982
2858.64	0.98
2867.18	0.979
2875.72	0.9752
2884.26	0.968
2892.8	0.9718
2901.34	0.9758
2909.88	0.9794
2918.41	0.98
2926.95	0.979
2935.49	0.977
2944.03	0.979
2952.57	0.977
2961.11	0.976
2969.65	0.9731
2978.19	0.964
2986.73	0.9601
2995.26	0.9529
3003.8	0.9324
3012.34	0.9166
3020.88	0.8619
3029.42	0.6562
3037.96	0.6714
3046.5	0.8341
3055.04	0.7853
3063.58	0.7297
3072.12	0.7523
3080.65	0.8017
3089.19	0.8546
3097.73	0.9052
3106.27	0.9493
3114.81	0.946
3123.35	0.9604
3131.89	0.977
3140.43	0.977
3148.97	0.976
3157.5	0.982
3166.04	0.9813
3174.58	0.9877
3183.12	0.989
3191.66	0.9907
3200.2	0.9884
3208.74	0.989
3217.28	0.988
3225.82	0.9937
3234.35	0.992
3242.89	0.995
3251.43	0.991
3259.97	0.9912
3268.51	0.992
3277.05	0.992
3285.59	0.988
3294.13	0.9918
3302.67	0.994
3311.21	0.992
3319.74	0.991
3328.28	0.991
3336.82	0.9873
3345.36	0.9798
3353.9	0.988
3362.44	0.985
3370.98	0.982
3379.52	0.9792
3388.06	0.977
3396.59	0.9762
3405.13	0.9707
3413.67	0.9614
3422.21	0.9594
3430.75	0.9485
3439.29	0.9384
3447.83	0.9322
3456.37	0.9131
3464.91	0.8961
3473.44	0.8814
3481.98	0.8555
3490.52	0.8206
3499.06	0.7547
3507.6	0.6292
3516.14	0.4098
3524.68	0.125
3533.22	0.2196
3541.76	0.4114
3550.29	0.7912
3558.83	0.8898
3567.37	0.9362
3575.91	0.9384
3584.45	0.919
3592.99	0.8782
3601.53	0.825
3610.07	0.8398
3618.61	0.936
3627.15	0.9748
3635.68	0.986
3644.22	0.9827
3652.76	0.9868
3661.3	0.9973
3669.84	0.998
3678.38	0.998
3686.92	0.9942
3695.46	0.992
3704	0.9836
3712.53	0.9809
3721.07	0.997
3729.61	0.9964
3738.15	0.9966
3746.69	0.9977
3755.23	0.995
3763.77	0.992
3772.31	0.9978
3780.85	0.994
3789.38	0.997
