Infrared Spectrum: N,N-Bis(2-hydroxyethyl)-m-chloroaniline
Formula: C 10 H 14 Cl N O 2
CAS: 92-00-2
State: gas
Origin: EPA-IR VAPOR PHASE LIBRARY
1/CM	ABSORBANCE
549.8	0.00357
559.445	0.00346
569.09	0.00345
578.734	0.00372
588.379	0.00401
598.024	0.00367
607.669	0.00323
617.313	0.00272
626.958	0.0026
636.603	0.00262
646.248	0.00257
655.893	0.00353
665.537	0.0058
675.182	0.01103
684.827	0.0163
694.472	0.01168
704.116	0.00739
713.761	0.0045
723.406	0.00306
733.051	0.0034
742.695	0.00586
752.34	0.01456
761.985	0.02856
771.63	0.02049
781.275	0.01204
790.919	0.00999
800.564	0.00844
810.209	0.00659
819.854	0.00649
829.498	0.00919
839.143	0.01338
848.788	0.01505
858.433	0.01305
868.078	0.00993
877.722	0.00867
887.367	0.00942
897.012	0.01222
906.657	0.01554
916.301	0.01606
925.946	0.01443
935.591	0.01254
945.236	0.01144
954.88	0.01157
964.525	0.01392
974.17	0.01843
983.815	0.02977
993.46	0.04761
1003.1	0.04304
1012.75	0.03717
1022.39	0.03796
1032.04	0.04861
1041.68	0.05739
1051.33	0.05014
1060.97	0.04825
1070.62	0.04717
1080.26	0.03587
1089.91	0.03176
1099.55	0.0369
1109.2	0.02655
1118.84	0.01558
1128.49	0.01343
1138.13	0.01416
1147.78	0.01624
1157.42	0.01951
1167.07	0.02264
1176.71	0.02406
1186.36	0.0244
1196	0.02697
1205.64	0.02772
1215.29	0.02537
1224.93	0.02277
1234.58	0.02171
1244.22	0.02071
1253.87	0.01962
1263.51	0.01878
1273.16	0.01777
1282.8	0.01728
1292.45	0.0169
1302.09	0.01712
1311.74	0.01857
1321.38	0.02107
1331.03	0.02482
1340.67	0.03071
1350.32	0.03731
1359.96	0.03836
1369.61	0.03198
1379.25	0.02509
1388.9	0.02127
1398.54	0.01797
1408.18	0.01459
1417.83	0.01316
1427.47	0.01436
1437.12	0.01611
1446.76	0.01854
1456.41	0.02241
1466.05	0.03129
1475.7	0.05465
1485.34	0.08041
1494.99	0.05842
1504.63	0.02372
1514.28	0.01303
1523.92	0.01083
1533.57	0.01128
1543.21	0.01348
1552.86	0.02094
1562.5	0.03551
1572.15	0.04195
1581.79	0.07095
1591.44	0.12814
1601.08	0.07704
1610.73	0.02534
1620.37	0.01229
1630.01	0.00709
1639.66	0.00489
1649.3	0.00404
1658.95	0.0038
1668.59	0.00338
1678.24	0.00276
1687.88	0.00234
1697.53	0.00214
1707.17	0.00213
1716.82	0.00202
1726.46	0.00169
1736.11	0.00157
1745.75	0.00168
1755.4	0.00203
1765.04	0.00244
1774.69	0.00234
1784.33	0.0018
1793.98	0.00176
1803.62	0.00182
1813.27	0.00193
1822.91	0.00227
1832.55	0.00239
1842.2	0.00169
1851.84	0.00118
1861.49	0.00111
1871.13	0.00105
1880.78	0.00113
1890.42	0.00138
1900.07	0.00198
1909.71	0.00222
1919.36	0.00167
1929	0.00135
1938.65	0.00109
1948.29	0.0009465
1957.94	0.0008998
1967.58	0.0008859
1977.23	0.0008994
1986.87	0.0007999
1996.52	0.0008622
2006.16	0.0008576
2015.81	0.0008845
2025.45	0.000823
2035.1	0.0009539
2044.74	0.0009344
2054.38	0.0011
2064.03	0.00104
2073.67	0.00104
2083.32	0.0009894
2092.96	0.0009432
2102.61	0.000894
2112.25	0.0009171
2121.9	0.0008917
2131.54	0.0008991
2141.19	0.0008479
2150.83	0.000829
2160.48	0.0008259
2170.12	0.0007938
2179.77	0.0007096
2189.41	0.0007539
2199.06	0.0006735
2208.7	0.0006806
2218.35	0.0006578
2227.99	0.0007252
2237.64	0.0007131
2247.28	0.000806
2256.92	0.0009364
2266.57	0.000903
2276.21	0.0007876
2285.86	0.0007755
2295.5	0.0008388
2305.15	0.0007339
2314.79	0.000685
2324.44	0.0006812
2334.08	0.0007747
2343.73	0.0008473
2353.37	0.0009108
2363.02	0.0009196
2372.66	0.0008811
2382.31	0.0009945
2391.95	0.0009951
2401.6	0.00102
2411.24	0.00114
2420.89	0.00108
2430.53	0.00113
2440.18	0.00111
2449.82	0.00117
2459.47	0.00109
2469.11	0.00106
2478.75	0.00114
2488.4	0.00108
2498.04	0.00108
2507.69	0.00114
2517.33	0.00118
2526.98	0.0011
2536.62	0.00118
2546.27	0.00138
2555.91	0.00122
2565.56	0.00128
2575.2	0.00126
2584.85	0.00131
2594.49	0.00126
2604.14	0.00131
2613.78	0.00123
2623.43	0.00126
2633.07	0.00144
2642.72	0.00151
2652.36	0.00165
2662.01	0.00172
2671.65	0.0019
2681.29	0.00229
2690.94	0.00251
2700.58	0.00282
2710.23	0.00288
2719.87	0.00295
2729.52	0.00299
2739.16	0.00307
2748.81	0.00319
2758.45	0.0034
2768.1	0.00353
2777.74	0.00397
2787.39	0.00448
2797.03	0.00534
2806.68	0.00677
2816.32	0.00862
2825.97	0.01142
2835.61	0.01459
2845.26	0.01702
2854.9	0.0193
2864.55	0.02265
2874.19	0.02899
2883.84	0.03563
2893.48	0.03485
2903.12	0.02965
2912.77	0.02832
2922.41	0.03187
2932.06	0.03583
2941.7	0.03746
2951.35	0.03713
2960.99	0.03448
2970.64	0.02867
2980.28	0.02039
2989.93	0.01237
2999.57	0.00748
3009.22	0.00542
3018.86	0.00485
3028.51	0.00496
3038.15	0.00504
3047.8	0.0044
3057.44	0.00426
3067.09	0.00486
3076.73	0.00655
3086.38	0.0074
3096.02	0.00578
3105.67	0.00348
3115.31	0.00179
3124.95	0.00108
3134.6	0.000764
3144.24	0.0007109
3153.89	0.0006575
3163.53	0.0005987
3173.18	0.0005823
3182.82	0.0008307
3192.47	0.0006691
3202.11	0.0006466
3211.76	0.0005289
3221.4	0.0004605
3231.05	0.0006099
3240.69	0.0005431
3250.34	0.0004851
3259.98	0.0003697
3269.63	0.0003702
3279.27	0.0004651
3288.92	0.0005223
3298.56	0.0005258
3308.21	0.0005052
3317.85	0.0005992
3327.49	0.000662
3337.14	0.0005954
3346.78	0.0005886
3356.43	0.0007089
3366.07	0.000876
3375.72	0.0009316
3385.36	0.0008629
3395.01	0.0009673
3404.65	0.0009387
3414.3	0.0012
3423.94	0.00121
3433.59	0.00141
3443.23	0.00116
3452.88	0.00139
3462.52	0.00146
3472.17	0.00164
3481.81	0.00176
3491.46	0.00191
3501.1	0.0019
3510.75	0.00218
3520.39	0.00262
3530.04	0.00353
3539.68	0.00475
3549.32	0.00566
3558.97	0.00602
3568.61	0.0063
3578.26	0.00635
3587.9	0.00602
3597.55	0.00543
3607.19	0.00523
3616.84	0.00519
3626.48	0.00544
3636.13	0.00565
3645.77	0.00671
3655.42	0.01023
3665.06	0.01478
3674.71	0.01329
3684.35	0.008
3694	0.00454
3703.64	0.00306
3713.29	0.00228
3722.93	0.00211
3732.58	0.00171
3742.22	0.00142
3751.86	0.00131
3761.51	0.00116
3771.15	0.00108
3780.8	0.0009789
3790.44	0.0009316
3800.09	0.000917
3809.73	0.0008125
3819.38	0.0009703
3829.02	0.0009084
3838.67	0.00108
3848.31	0.001
3857.96	0.00112
3867.6	0.0008989
3877.25	0.0009268
3886.89	0.0009048
3896.54	0.0009031
3906.18	0.000859
3915.83	0.0007814
3925.47	0.0008732
3935.12	0.0007633
3944.76	0.000641
3954.41	0.0008838
3964.05	0.0005956
3973.69	0.000602
3983.34	0.0006313
3992.98	0.0007073
