Infrared Spectrum: HYDROBENZAMIDE
Formula: C21 H18 N2
CAS: 92-29-5
State: SOLID (OIL MULL)
Melting point: 102-104 C
Class: COBLENTZ
Instrument: Not specified, most likely a prism, grating, or hybrid spectrometer.
Sampling: TRANSMISSION
Resolution: 4
Origin: WYANDOTTE CHEMICALS CORP., WYANDOTTE, MICHIGAN, USA
MICROMETERS	TRANSMITTANCE
2.014	0.291
2.05494	0.288
2.09587	0.296
2.13681	0.305
2.17774	0.298
2.21868	0.293
2.25961	0.305
2.30055	0.312
2.34148	0.312
2.38242	0.315
2.42335	0.327
2.46429	0.334
2.50522	0.346
2.54616	0.365
2.58709	0.36
2.62803	0.373
2.66896	0.368
2.7099	0.366
2.75084	0.372
2.79177	0.366
2.83271	0.361
2.87364	0.361
2.91458	0.361
2.95551	0.361
2.99645	0.366
3.03738	0.372
3.07832	0.361
3.11925	0.351
3.16019	0.344
3.20112	0.3
3.24206	0.24
3.28299	0.204
3.32393	0.088
3.36486	0.034
3.4058	0.051
3.44673	0.069
3.48767	0.177
3.52861	0.418
3.56954	0.486
3.61048	0.5
3.65141	0.501
3.69235	0.503
3.73328	0.505
3.77422	0.51
3.81515	0.517
3.85609	0.527
3.89702	0.537
3.93796	0.558
3.97889	0.563
4.01983	0.563
4.06076	0.561
4.1017	0.564
4.14263	0.568
4.18357	0.571
4.22451	0.559
4.26544	0.573
4.30638	0.6
4.34731	0.621
4.38825	0.621
4.42918	0.609
4.47012	0.614
4.51105	0.614
4.55199	0.631
4.59292	0.636
4.63386	0.641
4.67479	0.641
4.71573	0.65
4.75666	0.66
4.7976	0.66
4.83853	0.663
4.87947	0.668
4.92041	0.668
4.96134	0.668
5.00228	0.67
5.04321	0.674
5.08415	0.645
5.12508	0.621
5.16602	0.653
5.20695	0.682
5.24789	0.689
5.28882	0.653
5.32976	0.653
5.37069	0.699
5.41163	0.72
5.45256	0.713
5.4935	0.684
5.53443	0.662
5.57537	0.715
5.61631	0.732
5.65724	0.716
5.69818	0.694
5.73911	0.721
5.78005	0.75
5.82098	0.752
5.86192	0.721
5.90285	0.687
5.94379	0.675
5.98472	0.699
6.02566	0.571
6.06659	0.049
6.10753	0.187
6.14846	0.426
6.1894	0.378
6.23033	0.558
6.27127	0.36
6.3122	0.549
6.35314	0.604
6.39408	0.655
6.43501	0.631
6.47595	0.675
6.51688	0.675
6.55782	0.692
6.59875	0.697
6.63969	0.43
6.68062	0.409
6.72156	0.447
6.76249	0.266
6.80343	0.216
6.84436	0.081
6.8853	0.368
6.92623	0.522
6.96717	0.67
7.0081	0.696
7.04904	0.733
7.08998	0.726
7.13091	0.696
7.17185	0.602
7.21278	0.361
7.25372	0.235
7.29465	0.511
7.33559	0.537
7.37652	0.626
7.41746	0.665
7.45839	0.636
7.49933	0.648
7.54026	0.542
7.5812	0.186
7.62213	0.453
7.66307	0.368
7.704	0.339
7.74494	0.278
7.78588	0.508
7.82681	0.619
7.86775	0.655
7.90868	0.663
7.94962	0.554
7.99055	0.546
8.03149	0.672
8.07242	0.701
8.11336	0.694
8.15429	0.54
8.19523	0.264
8.23616	0.571
8.2771	0.663
8.31803	0.701
8.35897	0.732
8.3999	0.633
8.44084	0.728
8.48178	0.675
8.52271	0.517
8.56365	0.53
8.60458	0.636
8.64552	0.604
8.68645	0.72
8.72739	0.738
8.76832	0.752
8.80926	0.75
8.85019	0.75
8.89113	0.749
8.93206	0.721
8.973	0.703
9.01393	0.68
9.05487	0.682
9.0958	0.72
9.13674	0.726
9.17767	0.704
9.21861	0.51
9.25955	0.36
9.30048	0.54
9.34142	0.662
9.38235	0.726
9.42329	0.74
9.46422	0.74
9.50516	0.709
9.54609	0.6
9.58703	0.431
9.62796	0.186
9.6689	0.124
9.70983	0.151
9.75077	0.291
9.7917	0.404
9.83264	0.402
9.87357	0.276
9.91451	0.465
9.95545	0.419
9.99638	0.402
10.0373	0.447
10.0783	0.43
10.1192	0.53
10.1601	0.607
10.2011	0.598
10.242	0.667
10.2829	0.709
10.3239	0.72
10.3648	0.776
10.4057	0.805
10.4467	0.819
10.4876	0.824
10.5285	0.829
10.5695	0.848
10.6104	0.853
10.6513	0.86
10.6923	0.866
10.7332	0.868
10.7742	0.854
10.8151	0.79
10.856	0.532
10.897	0.619
10.9379	0.508
10.9788	0.556
11.0198	0.755
11.0607	0.822
11.1016	0.832
11.1426	0.846
11.1835	0.861
11.2244	0.865
11.2654	0.866
11.3063	0.88
11.3472	0.889
11.3882	0.895
11.4291	0.889
11.4701	0.854
11.511	0.754
11.5519	0.598
11.5929	0.689
11.6338	0.709
11.6747	0.59
11.7157	0.568
11.7566	0.68
11.7975	0.769
11.8385	0.732
11.8794	0.636
11.9203	0.757
11.9613	0.825
12.0022	0.822
12.0431	0.703
12.0841	0.37
12.125	0.291
12.166	0.474
12.2069	0.629
12.2478	0.725
12.2888	0.784
12.3297	0.82
12.3706	0.813
12.4116	0.778
12.4525	0.79
12.4934	0.849
12.5344	0.899
12.5753	0.918
12.6162	0.933
12.6572	0.933
12.6981	0.928
12.739	0.918
12.78	0.883
12.8209	0.812
12.8619	0.621
12.9028	0.349
12.9437	0.298
12.9847	0.44
13.0256	0.552
13.0665	0.542
13.1075	0.418
13.1484	0.211
13.1893	0.081
13.2303	0.066
13.2712	0.172
13.3121	0.329
13.3531	0.515
13.394	0.627
13.4349	0.703
13.4759	0.745
13.5168	0.786
13.5578	0.802
13.5987	0.813
13.6396	0.82
13.6806	0.825
13.7215	0.825
13.7624	0.82
13.8034	0.798
13.8443	0.745
13.8852	0.619
13.9262	0.457
13.9671	0.409
14.008	0.53
14.049	0.672
14.0899	0.745
14.1308	0.766
14.1718	0.682
14.2127	0.5
14.2537	0.25
14.2946	0.155
14.3355	0.139
14.3765	0.162
14.4174	0.165
14.4583	0.139
14.4993	0.11
14.5402	0.121
14.5811	0.197
14.6221	0.327
14.663	0.44
14.7039	0.54
14.7449	0.6
14.7858	0.639
14.8267	0.66
14.8677	0.674
14.9086	0.675
14.9496	0.675
14.9905	0.646
15.0314	0.602
15.0724	0.568
15.1133	0.588
15.1542	0.629
15.1952	0.667
15.2361	0.697
15.277	0.706
15.318	0.699
15.3589	0.704
15.3998	0.699
15.4408	0.699
15.4817	0.68
15.5226	0.663
15.5636	0.656
15.6045	0.646
15.6455	0.639
15.6864	0.621
15.7273	0.602
15.7683	0.566
15.8092	0.518
15.8501	0.474
15.8911	0.467
15.932	0.484
15.9729	0.498
