Infrared Spectrum: 2,3-BENZANTHRACENE
Formula: C18 H12
CAS: 92-24-0
State: SOLID (2.0% IN KBr PELLET)
Class: COBLENTZ
Instrument: Not specified, most likely a prism, grating, or hybrid spectrometer.
Sampling: TRANSMISSION
Path length: 0.0355 CM THICK
Resolution: 4
Origin: ANDERSON PHYSICAL LABORATORY
1/CM	TRANSMITTANCE
668.12	0.801
676.526	0.855
684.932	0.855
693.338	0.862
701.744	0.841
710.15	0.819
718.556	0.75
726.962	0.591
735.368	0.083
743.774	0.146
752.18	0.227
760.586	0.8593
768.992	0.949
777.398	0.938
785.804	0.922
794.21	0.887
802.616	0.953
811.022	0.935
819.428	0.911
827.834	0.899
836.24	0.889
844.646	0.893
853.052	0.886
861.458	0.862
869.864	0.835
878.27	0.705
886.676	0.699
895.082	0.497
903.488	0.049
911.894	0.339
920.3	0.938
928.706	0.9131
937.112	0.8957
945.518	0.902
953.924	0.7891
962.33	0.321
970.736	0.887
979.142	0.913
987.548	0.902
995.954	0.799
1004.36	0.8321
1012.77	0.914
1021.17	0.907
1029.58	0.907
1037.98	0.89
1046.39	0.89
1054.8	0.887
1063.2	0.886
1071.61	0.886
1080.01	0.874
1088.42	0.868
1096.83	0.862
1105.23	0.841
1113.64	0.822
1122.04	0.714
1130.45	0.777
1138.86	0.843
1147.26	0.838
1155.67	0.802
1164.07	0.721
1172.48	0.7891
1180.89	0.976
1189.29	0.956
1197.7	0.91
1206.1	0.955
1214.51	0.985
1222.92	0.979
1231.32	0.958
1239.73	0.947
1248.13	0.935
1256.54	0.932
1264.95	0.934
1273.35	0.908
1281.76	0.82
1290.16	0.766
1298.57	0.47
1306.98	0.802
1315.38	0.944
1323.79	0.926
1332.19	0.88
1340.6	0.877
1349.01	0.872
1357.41	0.869
1365.82	0.826
1374.22	0.801
1382.63	0.82
1391.04	0.6391
1399.44	0.863
1407.85	0.852
1416.25	0.834
1424.66	0.823
1433.07	0.813
1441.47	0.832
1449.88	0.822
1458.28	0.798
1466.69	0.575
1475.1	0.714
1483.5	0.834
1491.91	0.828
1500.31	0.82
1508.72	0.81
1517.13	0.799
1525.53	0.801
1533.94	0.777
1542.34	0.656
1550.75	0.787
1559.16	0.762
1567.56	0.747
1575.97	0.738
1584.37	0.735
1592.78	0.715
1601.19	0.701
1609.59	0.626
1618	0.629
1626.4	0.581
1634.81	0.551
1643.22	0.635
1651.62	0.629
1660.03	0.588
1668.43	0.584
1676.84	0.642
1685.25	0.666
1693.65	0.659
1702.06	0.693
1710.46	0.705
1718.87	0.71
1727.28	0.702
1735.68	0.693
1744.09	0.726
1752.49	0.739
1760.9	0.739
1769.31	0.729
1777.71	0.723
1786.12	0.699
1794.52	0.629
1802.93	0.566
1811.34	0.657
1819.74	0.708
1828.15	0.702
1836.55	0.702
1844.96	0.701
1853.37	0.692
1861.77	0.698
1870.18	0.702
1878.58	0.696
1886.99	0.692
1895.4	0.686
1903.8	0.68
1912.21	0.648
1920.61	0.632
1929.02	0.62
1937.43	0.618
1945.83	0.621
1954.24	0.659
1962.64	0.666
1971.05	0.666
1979.46	0.665
1987.86	0.656
1996.27	0.648
2004.67	0.6372
2013.08	0.631
2021.49	0.627
2029.89	0.626
2038.3	0.6207
2046.7	0.6175
2055.11	0.615
2063.52	0.6139
2071.92	0.6071
2080.33	0.6024
2088.73	0.5992
2097.14	0.597
2105.55	0.596
2113.95	0.5922
2122.36	0.5821
2130.76	0.5759
2139.17	0.5723
2147.58	0.569
2155.98	0.568
2164.39	0.5629
2172.79	0.5582
2181.2	0.5541
2189.61	0.5501
2198.01	0.5478
2206.42	0.5432
2214.82	0.537
2223.23	0.5331
2231.64	0.53
2240.04	0.5266
2248.45	0.5239
2256.85	0.5172
2265.26	0.5133
2273.67	0.5076
2282.07	0.5008
2290.48	0.497
2298.88	0.4955
2307.29	0.4935
2315.7	0.493
2324.1	0.49
2332.51	0.4865
2340.92	0.4834
2349.32	0.4759
2357.73	0.473
2366.13	0.472
2374.54	0.4709
2382.95	0.47
2391.35	0.467
2399.76	0.466
2408.16	0.4634
2416.57	0.461
2424.98	0.4598
2433.38	0.4536
2441.79	0.4484
2450.19	0.4451
2458.6	0.443
2467.01	0.4412
2475.41	0.4394
2483.82	0.4372
2492.22	0.436
2500.63	0.4348
2509.04	0.4273
2517.44	0.4261
2525.85	0.4226
2534.25	0.4176
2542.66	0.415
2551.07	0.4141
2559.47	0.412
2567.88	0.411
2576.28	0.4044
2584.69	0.4
2593.1	0.3963
2601.5	0.3915
2609.91	0.3872
2618.31	0.387
2626.72	0.3847
2635.13	0.384
2643.53	0.382
2651.94	0.3809
2660.34	0.3774
2668.75	0.3703
2677.16	0.3662
2685.56	0.3639
2693.97	0.361
2702.37	0.3604
2710.78	0.3583
2719.19	0.358
2727.59	0.357
2736	0.3558
2744.4	0.3541
2752.81	0.3519
2761.22	0.3456
2769.62	0.3424
2778.03	0.3402
2786.43	0.336
2794.84	0.334
2803.25	0.329
2811.65	0.3223
2820.06	0.3188
2828.46	0.3117
2836.87	0.3033
2845.28	0.2981
2853.68	0.2948
2862.09	0.2915
2870.49	0.2888
2878.9	0.285
2887.31	0.2835
2895.71	0.283
2904.12	0.2795
2912.52	0.279
2920.93	0.2775
2929.34	0.2744
2937.74	0.2667
2946.15	0.261
2954.55	0.2547
2962.96	0.2485
2971.37	0.2404
2979.77	0.2328
2988.18	0.2277
2996.58	0.2167
3004.99	0.2048
3013.4	0.1967
3021.8	0.1917
3030.21	0.1916
3038.61	0.2061
3047.02	0.226
3055.43	0.2449
3063.83	0.2529
3072.24	0.2568
3080.64	0.258
3089.05	0.258
3097.46	0.2573
3105.86	0.257
3114.27	0.2535
3122.67	0.2486
3131.08	0.2466
3139.49	0.246
3147.89	0.245
3156.3	0.243
3164.7	0.2423
3173.11	0.2401
3181.52	0.2386
3189.92	0.237
3198.33	0.236
3206.73	0.234
3215.14	0.233
3223.55	0.232
3231.95	0.23
3240.36	0.227
3248.76	0.2242
3257.17	0.2199
3265.58	0.2182
3273.98	0.215
3282.39	0.213
3290.79	0.212
3299.2	0.2092
3307.61	0.207
3316.01	0.2067
3324.42	0.2048
3332.82	0.2015
3341.23	0.1945
3349.64	0.1903
3358.04	0.188
3366.45	0.188
3374.85	0.185
3383.26	0.185
3391.67	0.183
3400.07	0.1821
3408.48	0.1817
3416.88	0.1781
3425.29	0.1746
3433.7	0.1731
3442.1	0.171
3450.51	0.1719
3458.91	0.173
3467.32	0.174
3475.73	0.174
3484.13	0.176
3492.54	0.176
3500.94	0.176
3509.35	0.177
3517.76	0.1795
3526.16	0.182
3534.57	0.182
3542.97	0.183
3551.38	0.183
3559.79	0.182
3568.19	0.18
3576.6	0.18
3585	0.179
3593.41	0.179
3601.82	0.179
3610.22	0.18
3618.63	0.18
3627.03	0.18
3635.44	0.18
3643.85	0.18
3652.25	0.18
3660.66	0.18
3669.06	0.18
3677.47	0.179
3685.88	0.1777
3694.28	0.1761
3702.69	0.1738
3711.09	0.173
3719.5	0.173
3727.91	0.173
3736.31	0.171
3744.72	0.171
3753.12	0.17
3761.53	0.17
3769.94	0.171
3778.34	0.1705
3786.75	0.1685
3795.15	0.165
3803.56	0.164
3811.97	0.164
3820.37	0.1625
3828.78	0.162
3837.18	0.162
3845.59	0.162
3854	0.162
3862.4	0.162
3870.81	0.162
3879.21	0.162
3887.62	0.162
3896.03	0.162
3904.43	0.161
3912.84	0.1598
3921.24	0.158
3929.65	0.156
3938.06	0.1556
3946.46	0.155
3954.87	0.155
3963.27	0.1551
3971.68	0.156
3980.09	0.158
