Infrared Spectrum: BENZOTHIAZOLE, 2-(p-AMINOPHENYL)-6-METHYL-
Formula: C14 H12 N2 S
CAS: 92-36-4
State: SOLID (SPLIT MULL), FLUOROLUBE FOR 3800-1330 CM^-^1, NUJOL FOR 1330-400 CM^-^1
Class: COBLENTZ III
Instrument: BECKMAN IR-9 (GRATING)
Instrument parameters: ORDER CHANGES: 670, 1200, 2000 CM^-^1
Sampling: TRANSMISSION
Resolution: 2
Origin: DOW CHEMICAL COMPANY
1/CM	TRANSMITTANCE
402	0.5465
411	0.5373
420	0.5602
429	0.607
438	0.6269
447	0.7132
456	0.7498
465	0.7768
474	0.7951
483	0.7906
492	0.8005
501	0.7572
510	0.6851
519	0.8176
528	0.8336
537	0.8567
546	0.8618
555	0.8605
564	0.7112
573	0.8164
582	0.8677
591	0.8653
600	0.8351
609	0.8321
618	0.8488
627	0.8262
636	0.8465
645	0.8773
654	0.8756
663	0.8727
672	0.866
681	0.8578
690	0.8309
699	0.6495
708	0.7478
717	0.7865
726	0.6771
735	0.7758
744	0.8128
753	0.8481
762	0.8634
771	0.8698
780	0.8783
789	0.893
798	0.8916
807	0.8377
816	0.3662
825	0.4971
834	0.5495
843	0.8034
852	0.8597
861	0.8806
870	0.7937
879	0.8816
888	0.8858
897	0.8778
906	0.8918
915	0.8902
924	0.8857
933	0.8761
942	0.8535
951	0.8463
960	0.831
969	0.6874
978	0.6152
987	0.8499
996	0.8742
1005	0.8299
1014	0.8671
1023	0.8653
1032	0.8495
1041	0.8432
1050	0.8614
1059	0.8536
1068	0.8521
1077	0.8701
1086	0.8783
1095	0.888
1104	0.8902
1113	0.882
1122	0.8268
1131	0.7667
1140	0.8105
1149	0.8306
1158	0.8223
1167	0.8058
1176	0.3836
1185	0.7591
1194	0.864
1203	0.8733
1212	0.8334
1221	0.7986
1230	0.5936
1239	0.7235
1248	0.7968
1257	0.739
1266	0.7653
1275	0.813
1284	0.6931
1293	0.7421
1302	0.5714
1311	0.3154
1320	0.4628
1329	0.6076
1338	0.7144
1347	0.5948
1356	0.6712
1365	0.7245
1374	0.7443
1383	0.7365
1392	0.7438
1401	0.7135
1410	0.6798
1419	0.691
1428	0.6281
1437	0.341
1446	0.5459
1455	0.3832
1464	0.6245
1473	0.4453
1482	0.202
1491	0.6252
1500	0.7301
1509	0.7914
1518	0.8095
1527	0.7918
1536	0.7945
1545	0.7915
1554	0.7594
1563	0.7225
1572	0.6581
1581	0.7191
1590	0.6528
1599	0.3989
1608	0.1548
1617	0.2634
1626	0.3718
1635	0.1375
1644	0.6355
1653	0.8201
1662	0.8675
1671	0.8841
1680	0.8883
1689	0.8902
1698	0.8914
1707	0.8915
1716	0.8914
1725	0.8875
1734	0.8775
1743	0.8771
1752	0.8781
1761	0.8706
1770	0.8683
1779	0.8661
1788	0.8624
1797	0.8617
1806	0.8604
1815	0.8591
1824	0.8581
1833	0.8558
1842	0.8537
1851	0.8506
1860	0.8468
1869	0.8423
1878	0.839
1887	0.8355
1896	0.8282
1905	0.83
1914	0.8405
1923	0.8407
1932	0.8407
1941	0.8402
1950	0.8394
1959	0.8378
1968	0.836
1977	0.8338
1986	0.8316
1995	0.8263
2004	0.8195
2013	0.8262
2022	0.8245
2031	0.8249
2040	0.8234
2049	0.8225
2058	0.8186
2067	0.8111
2076	0.8081
2085	0.8051
2094	0.8019
2103	0.7993
2112	0.7971
2121	0.7932
2130	0.7901
2139	0.7868
2148	0.7832
2157	0.7801
2166	0.7775
2175	0.7741
2184	0.7698
2193	0.7655
2202	0.7617
2211	0.7564
2220	0.7505
2229	0.7437
2238	0.7376
2247	0.7318
2256	0.7261
2265	0.7205
2274	0.7149
2283	0.7099
2292	0.7049
2301	0.7008
2310	0.6967
2319	0.693
2328	0.6895
2337	0.686
2346	0.6837
2355	0.6838
2364	0.6832
2373	0.6848
2382	0.6976
2391	0.7044
2400	0.7051
2409	0.7053
2418	0.7051
2427	0.7049
2436	0.704
2445	0.7028
2454	0.7015
2463	0.7004
2472	0.6996
2481	0.6987
2490	0.6975
2499	0.6961
2508	0.6948
2517	0.6933
2526	0.6917
2535	0.6898
2544	0.6906
2553	0.6922
2562	0.6911
2571	0.6881
2580	0.6851
2589	0.6828
2598	0.6806
2607	0.6781
2616	0.6756
2625	0.6733
2634	0.6701
2643	0.666
2652	0.6697
2661	0.6676
2670	0.6633
2679	0.6596
2688	0.6569
2697	0.6541
2706	0.6528
2715	0.6539
2724	0.6565
2733	0.658
2742	0.6554
2751	0.6525
2760	0.6497
2769	0.6469
2778	0.6443
2787	0.6437
2796	0.6436
2805	0.6425
2814	0.64
2823	0.6362
2832	0.6293
2841	0.6215
2850	0.6136
2859	0.6055
2868	0.5991
2877	0.5998
2886	0.6031
2895	0.6023
2904	0.5959
2913	0.5876
2922	0.5779
2931	0.5681
2940	0.5685
2949	0.5696
2958	0.571
2967	0.5732
2976	0.5758
2985	0.582
2994	0.5841
3003	0.5829
3012	0.5719
3021	0.5621
3030	0.5587
3039	0.5576
3048	0.5522
3057	0.5512
3066	0.5531
3075	0.5577
3084	0.5609
3093	0.56
3102	0.5555
3111	0.5474
3120	0.5376
3129	0.526
3138	0.5114
3147	0.4916
3156	0.4673
3165	0.4377
3174	0.4003
3183	0.3368
3192	0.2942
3201	0.2884
3210	0.3191
3219	0.4445
3228	0.4871
3237	0.5012
3246	0.506
3255	0.5117
3264	0.4895
3273	0.4552
3282	0.4179
3291	0.3804
3300	0.3589
3309	0.3491
3318	0.3464
3327	0.3547
3336	0.3834
3345	0.4309
3354	0.491
3363	0.5205
3372	0.53
3381	0.5232
3390	0.5304
3399	0.5489
3408	0.5548
3417	0.5549
3426	0.5498
3435	0.5343
3444	0.5075
3453	0.4555
3462	0.3476
3471	0.3422
3480	0.5048
3489	0.5577
3498	0.5638
3507	0.5674
3516	0.5689
3525	0.57
3534	0.5699
3543	0.5696
3552	0.5692
3561	0.5688
3570	0.5684
3579	0.5678
3588	0.5672
3597	0.5665
3606	0.5658
3615	0.5643
3624	0.5628
3633	0.5612
3642	0.5592
3651	0.5567
3660	0.5516
3669	0.5493
3678	0.548
3687	0.5479
3696	0.5459
3705	0.5438
3714	0.5417
3723	0.5395
3732	0.5374
3741	0.5353
3750	0.5334
3759	0.5315
3768	0.5298
3777	0.5284
3786	0.5271
3795	0.5262
