Infrared Spectrum: 6-Chloroquinaldine
Formula: C 10 H 8 Cl N
CAS: 92-46-6
State: gas
Origin: EPA-IR VAPOR PHASE LIBRARY
1/CM	ABSORBANCE
549.8	0.011816
559.445	0.001956
569.09	0.0005137
578.734	0.0001306
588.379	0.00028456
598.024	1.4e-05
607.669	0.0004316
617.313	0.0007199
626.958	0.002046
636.603	0.005036
646.248	0.005646
655.893	0.003016
665.537	0.001416
675.182	0.0007618
684.827	0.0005051
694.472	0.0009286
704.116	0.0009208
713.761	0.001646
723.406	0.006776
733.051	0.011726
742.695	0.002546
752.34	0.0010612
761.985	0.0011828
771.63	0.001476
781.275	0.005046
790.919	0.015606
800.564	0.036766
810.209	0.035286
819.854	0.030046
829.498	0.045346
839.143	0.032256
848.788	0.013236
858.433	0.010816
868.078	0.019406
877.722	0.021286
887.367	0.016776
897.012	0.023516
906.657	0.012216
916.301	0.003156
925.946	0.002386
935.591	0.003046
945.236	0.013056
954.88	0.013146
964.525	0.003766
974.17	0.002996
983.815	0.002736
993.46	0.002756
1003.1	0.004256
1012.75	0.004436
1022.39	0.003206
1032.04	0.002836
1041.68	0.003066
1051.33	0.005666
1060.97	0.020756
1070.62	0.036126
1080.26	0.021116
1089.91	0.009556
1099.55	0.005566
1109.2	0.007856
1118.84	0.008436
1128.49	0.004246
1138.13	0.003116
1147.78	0.002426
1157.42	0.003506
1167.07	0.006946
1176.71	0.015586
1186.36	0.016046
1196	0.011086
1205.64	0.009386
1215.29	0.015366
1224.93	0.011906
1234.58	0.004806
1244.22	0.004376
1253.87	0.002726
1263.51	0.002286
1273.16	0.002586
1282.8	0.006266
1292.45	0.021656
1302.09	0.032946
1311.74	0.024166
1321.38	0.016666
1331.03	0.013576
1340.67	0.007696
1350.32	0.007056
1359.96	0.011156
1369.61	0.014426
1379.25	0.017256
1388.9	0.010756
1398.54	0.006016
1408.18	0.005246
1417.83	0.005366
1427.47	0.005766
1437.12	0.006746
1446.76	0.007236
1456.41	0.010256
1466.05	0.014896
1475.7	0.028956
1485.34	0.064826
1494.99	0.052276
1504.63	0.026806
1514.28	0.015156
1523.92	0.011356
1533.57	0.011596
1543.21	0.015276
1552.86	0.021416
1562.5	0.017676
1572.15	0.010266
1581.79	0.017426
1591.44	0.053796
1601.08	0.083276
1610.73	0.049896
1620.37	0.015436
1630.01	0.005846
1639.66	0.003286
1649.3	0.002776
1658.95	0.002646
1668.59	0.002446
1678.24	0.002006
1687.88	0.001876
1697.53	0.002026
1707.17	0.002196
1716.82	0.002676
1726.46	0.003026
1736.11	0.003296
1745.75	0.003316
1755.4	0.003316
1765.04	0.002646
1774.69	0.001906
1784.33	0.002506
1793.98	0.002026
1803.62	0.001256
1813.27	0.0009376
1822.91	0.0009724
1832.55	0.0011938
1842.2	0.001476
1851.84	0.001064
1861.49	0.0007483
1871.13	0.0006999
1880.78	0.0007539
1890.42	0.0009513
1900.07	0.001686
1909.71	0.003096
1919.36	0.004086
1929	0.003136
1938.65	0.001736
1948.29	0.0009873
1957.94	0.0005514
1967.58	0.0004849
1977.23	0.0004237
1986.87	0.0003654
1996.52	0.0004667
2006.16	0.0005935
2015.81	0.0007467
2025.45	0.0008472
2035.1	0.0007648
2044.74	0.0006629
2054.38	0.0006176
2064.03	0.0005585
2073.67	0.0006004
2083.32	0.0005444
2092.96	0.0005686
2102.61	0.0007601
2112.25	0.0008474
2121.9	0.0006894
2131.54	0.0006767
2141.19	0.0006928
2150.83	0.000616
2160.48	0.0006324
2170.12	0.0006104
2179.77	0.0005349
2189.41	0.0004779
2199.06	0.0004435
2208.7	0.0004442
2218.35	0.0005906
2227.99	0.000468
2237.64	0.0006075
2247.28	0.0007458
2256.92	0.0010586
2266.57	0.0011718
2276.21	0.0009923
2285.86	0.000659
2295.5	0.0004822
2305.15	0.0005651
2314.79	0.0006529
2324.44	0.0008224
2334.08	0.0009093
2343.73	0.000796
2353.37	0.0008048
2363.02	0.0008747
2372.66	0.0008656
2382.31	0.0006863
2391.95	0.0005865
2401.6	0.0005773
2411.24	0.0007123
2420.89	0.0007835
2430.53	0.0009226
2440.18	0.0010466
2449.82	0.0008859
2459.47	0.0007609
2469.11	0.0008188
2478.75	0.0007214
2488.4	0.0008006
2498.04	0.0008902
2507.69	0.0006795
2517.33	0.000653
2526.98	0.0006464
2536.62	0.0009752
2546.27	0.0010124
2555.91	0.0009478
2565.56	0.0007655
2575.2	0.0008679
2584.85	0.0009189
2594.49	0.0010451
2604.14	0.0009256
2613.78	0.0007155
2623.43	0.0005987
2633.07	0.0005427
2642.72	0.000539
2652.36	0.000485
2662.01	0.0004576
2671.65	0.0005684
2681.29	0.0006938
2690.94	0.0006439
2700.58	0.0007955
2710.23	0.0007407
2719.87	0.0007812
2729.52	0.0010357
2739.16	0.0010685
2748.81	0.0008858
2758.45	0.0006946
2768.1	0.0006127
2777.74	0.0006814
2787.39	0.0006432
2797.03	0.0008479
2806.68	0.0009476
2816.32	0.0010658
2825.97	0.001456
2835.61	0.001906
2845.26	0.002686
2854.9	0.003616
2864.55	0.004916
2874.19	0.004736
2883.84	0.004116
2893.48	0.004086
2903.12	0.004596
2912.77	0.006226
2922.41	0.011826
2932.06	0.019816
2941.7	0.014846
2951.35	0.008346
2960.99	0.006736
2970.64	0.004976
2980.28	0.003686
2989.93	0.003316
2999.57	0.003866
3009.22	0.005016
3018.86	0.006746
3028.51	0.009366
3038.15	0.010856
3047.8	0.013986
3057.44	0.020786
3067.09	0.020596
3076.73	0.014356
3086.38	0.009516
3096.02	0.005126
3105.67	0.002806
3115.31	0.001636
3124.95	0.001246
3134.6	0.0008676
3144.24	0.0007928
3153.89	0.0006853
3163.53	0.000662
3173.18	0.0007389
3182.82	0.0005157
3192.47	0.0005168
3202.11	0.0006341
3211.76	0.0005956
3221.4	0.0007489
3231.05	0.0005214
3240.69	0.0005279
3250.34	0.00027915
3259.98	0.0003633
3269.63	0.00022324
3279.27	0.00028603
3288.92	0.0003261
3298.56	0.0003859
3308.21	0.0003556
3317.85	0.00021897
3327.49	0.000195699
3337.14	0.0003141
3346.78	0.00028168
3356.43	0.0003247
3366.07	0.00027572
3375.72	0.00025356
3385.36	0.00045
3395.01	0.0003298
3404.65	0.0003572
3414.3	0.0003093
3423.94	0.0001223
3433.59	0.0001117
3443.23	0.00026576
3452.88	0.00028239
3462.52	0.0001085
3472.17	0.00024486
3481.81	0.0003155
3491.46	0.00021505
3501.1	0.00027102
3510.75	0.0003055
3520.39	0.000195937
3530.04	0.00024564
3539.68	0.00027899
3549.32	0.00026444
3558.97	0.00024721
3568.61	0.0001608
3578.26	0.00028208
3587.9	0.0002705
3597.55	0.0003678
3607.19	0.0003612
3616.84	0.00027419
3626.48	0.0001389
3636.13	0.0003444
3645.77	0.000204755
3655.42	0.0003142
3665.06	0.0002509
3674.71	0.0004068
3684.35	0.0004108
3694	0.00023062
3703.64	0.0003145
3713.29	0.0005513
3722.93	0.0003492
3732.58	0.00037
3742.22	0.0003722
3751.86	0.0003898
3761.51	0.0001436
3771.15	0.00021273
3780.8	0.0004373
3790.44	0.00025698
3800.09	0.0004554
3809.73	0.0003348
3819.38	0.0003646
3829.02	0.0003973
3838.67	0.00029477
3848.31	0.0005105
3857.96	0.0005106
3867.6	0.0001936
3877.25	0.00024172
3886.89	0.00025567
3896.54	0.0004023
3906.18	0.0002157
3915.83	0.000352
3925.47	0.0004045
3935.12	0.0004393
3944.76	0.000676
3954.41	0.0007727
3964.05	0.0007983
3973.69	0.0008269
3983.34	0.0008115
3992.98	0.0006468
