Infrared Spectrum: 1-PHENYL-3-PYRAZOLIDONE
Formula: C9 H10 N2 O
CAS: 92-43-3
State: SOLID (KBr PRESSING)
Melting point: 125-127 C
Class: COBLENTZ
Instrument: Not specified, most likely a prism, grating, or hybrid spectrometer.
Sampling: TRANSMISSION
Resolution: 4
Origin: EASTMAN KODAK COMPANY, RESEARCH LABORATORIES, ROCHESTER, N.Y.
MICROMETERS	TRANSMITTANCE
2.063	0.626
2.09823	0.633
2.13346	0.643
2.16869	0.643
2.20392	0.642
2.23916	0.657
2.27439	0.666
2.30962	0.67
2.34485	0.677
2.38008	0.68
2.41531	0.68
2.45054	0.691
2.48577	0.696
2.521	0.703
2.55623	0.722
2.59147	0.727
2.6267	0.72
2.66193	0.726
2.69716	0.732
2.73239	0.732
2.76762	0.705
2.80285	0.673
2.83808	0.657
2.87331	0.65
2.90854	0.652
2.94378	0.663
2.97901	0.677
3.01424	0.698
3.04947	0.694
3.0847	0.636
3.11993	0.525
3.15516	0.408
3.19039	0.307
3.22562	0.38
3.26086	0.171
3.29609	0.191
3.33132	0.267
3.36655	0.333
3.40178	0.331
3.43701	0.324
3.47224	0.174
3.50747	0.198
3.5427	0.287
3.57793	0.363
3.61317	0.42
3.6484	0.483
3.68363	0.549
3.71886	0.582
3.75409	0.61
3.78932	0.636
3.82455	0.675
3.85978	0.687
3.89501	0.72
3.93025	0.739
3.96548	0.75
4.00071	0.762
4.03594	0.769
4.07117	0.771
4.1064	0.785
4.14163	0.794
4.17686	0.795
4.21209	0.797
4.24732	0.802
4.28256	0.808
4.31779	0.818
4.35302	0.821
4.38825	0.839
4.42348	0.842
4.45871	0.848
4.49394	0.849
4.52917	0.853
4.5644	0.862
4.59963	0.863
4.63487	0.87
4.6701	0.872
4.70533	0.877
4.74056	0.888
4.77579	0.897
4.81102	0.897
4.84625	0.898
4.88148	0.9
4.91671	0.9
4.95195	0.9
4.98718	0.902
5.02241	0.91
5.05764	0.909
5.09287	0.91
5.1281	0.904
5.16333	0.862
5.19856	0.904
5.23379	0.923
5.26902	0.923
5.30426	0.928
5.33949	0.931
5.37472	0.935
5.40995	0.928
5.44518	0.87
5.48041	0.919
5.51564	0.933
5.55087	0.931
5.5861	0.93
5.62134	0.898
5.65657	0.87
5.6918	0.811
5.72703	0.722
5.76226	0.586
5.79749	0.385
5.83272	0.254
5.86795	0.075
5.90318	0.048
5.93841	0.02
5.97365	0.022
6.00888	0.09
6.04411	0.211
6.07934	0.328
6.11457	0.462
6.1498	0.528
6.18503	0.499
6.22026	0.308
6.25549	0.129
6.29072	0.474
6.32596	0.556
6.36119	0.626
6.39642	0.657
6.43165	0.722
6.46688	0.732
6.50211	0.76
6.53734	0.755
6.57257	0.694
6.6078	0.458
6.64304	0.223
6.67827	0.16
6.7135	0.394
6.74873	0.616
6.78396	0.556
6.81919	0.333
6.85442	0.551
6.88965	0.418
6.92488	0.682
6.96011	0.722
6.99535	0.727
7.03058	0.602
7.06581	0.684
7.10104	0.731
7.13627	0.72
7.1715	0.706
7.20673	0.602
7.24196	0.448
7.27719	0.359
7.31243	0.342
7.34766	0.458
7.38289	0.539
7.41812	0.593
7.45335	0.652
7.48858	0.729
7.52381	0.739
7.55904	0.431
7.59427	0.609
7.6295	0.567
7.66474	0.279
7.69997	0.465
7.7352	0.368
7.77043	0.239
7.80566	0.137
7.84089	0.097
7.87612	0.188
7.91135	0.467
7.94658	0.565
7.98181	0.649
8.01705	0.719
8.05228	0.741
8.08751	0.75
8.12274	0.739
8.15797	0.549
8.1932	0.191
8.22843	0.336
8.26366	0.572
8.29889	0.654
8.33413	0.673
8.36936	0.338
8.40459	0.458
8.43982	0.652
8.47505	0.575
8.51028	0.677
8.54551	0.736
8.58074	0.464
8.61597	0.687
8.6512	0.771
8.68644	0.773
8.72167	0.757
8.7569	0.736
8.79213	0.666
8.82736	0.446
8.86259	0.312
8.89782	0.542
8.93305	0.708
8.96828	0.773
9.00352	0.753
9.03875	0.732
9.07398	0.783
9.10921	0.821
9.14444	0.841
9.17967	0.851
9.2149	0.849
9.25013	0.848
9.28536	0.851
9.32059	0.855
9.35583	0.858
9.39106	0.815
9.42629	0.61
9.46152	0.561
9.49675	0.781
9.53198	0.846
9.56721	0.86
9.60244	0.825
9.63767	0.666
9.6729	0.774
9.70814	0.834
9.74337	0.846
9.7786	0.853
9.81383	0.853
9.84906	0.806
9.88429	0.801
9.91952	0.851
9.95475	0.86
9.98998	0.816
10.0252	0.771
10.0604	0.867
10.0957	0.874
10.1309	0.865
10.1661	0.855
10.2014	0.808
10.2366	0.698
10.2718	0.574
10.3071	0.633
10.3423	0.736
10.3775	0.743
10.4128	0.731
10.448	0.816
10.4832	0.849
10.5184	0.862
10.5537	0.863
10.5889	0.865
10.6241	0.869
10.6594	0.869
10.6946	0.869
10.7298	0.869
10.7651	0.867
10.8003	0.846
10.8355	0.771
10.8708	0.684
10.906	0.773
10.9412	0.811
10.9765	0.82
11.0117	0.821
11.0469	0.811
11.0821	0.804
11.1174	0.783
11.1526	0.759
11.1878	0.745
11.2231	0.722
11.2583	0.698
11.2935	0.65
11.3288	0.603
11.364	0.525
11.3992	0.406
11.4345	0.352
11.4697	0.343
11.5049	0.321
11.5402	0.301
11.5754	0.314
11.6106	0.371
11.6458	0.446
11.6811	0.525
11.7163	0.602
11.7515	0.661
11.7868	0.708
11.822	0.738
11.8572	0.762
11.8925	0.766
11.9277	0.759
11.9629	0.739
11.9982	0.691
12.0334	0.654
12.0686	0.661
12.1038	0.717
12.1391	0.771
12.1743	0.813
12.2095	0.839
12.2448	0.858
12.28	0.867
12.3152	0.874
12.3505	0.877
12.3857	0.881
12.4209	0.886
12.4562	0.891
12.4914	0.898
12.5266	0.898
12.5619	0.897
12.5971	0.877
12.6323	0.856
12.6675	0.83
12.7028	0.795
12.738	0.748
12.7732	0.722
12.8085	0.664
12.8437	0.575
12.8789	0.486
12.9142	0.424
12.9494	0.38
12.9846	0.373
13.0199	0.389
13.0551	0.404
13.0903	0.404
13.1255	0.373
13.1608	0.279
13.196	0.169
13.2312	0.089
13.2665	0.054
13.3017	0.061
13.3369	0.134
13.3722	0.239
13.4074	0.385
13.4426	0.52
13.4779	0.598
13.5131	0.65
13.5483	0.682
13.5836	0.715
13.6188	0.746
13.654	0.767
13.6892	0.787
13.7245	0.794
13.7597	0.806
13.7949	0.823
13.8302	0.832
13.8654	0.846
13.9006	0.846
13.9359	0.844
13.9711	0.842
14.0063	0.846
14.0416	0.855
14.0768	0.856
14.112	0.856
14.1472	0.849
14.1825	0.83
14.2177	0.808
14.2529	0.783
14.2882	0.757
14.3234	0.717
14.3586	0.65
14.3939	0.568
14.4291	0.424
14.4643	0.273
14.4996	0.195
14.5348	0.174
14.57	0.205
14.6053	0.293
14.6405	0.465
14.6757	0.595
14.7109	0.642
14.7462	0.677
14.7814	0.703
14.8166	0.713
14.8519	0.722
14.8871	0.724
14.9223	0.708
14.9576	0.68
14.9928	0.661
15.028	0.63
15.0633	0.579
15.0985	0.502
15.1337	0.424
15.1689	0.376
15.2042	0.35
15.2394	0.354
15.2746	0.408
15.3099	0.448
15.3451	0.446
15.3803	0.408
15.4156	0.349
15.4508	0.321
15.486	0.336
15.5213	0.394
15.5565	0.474
15.5917	0.53
15.627	0.574
15.6622	0.605
15.6974	0.617
15.7326	0.642
15.7679	0.654
15.8031	0.657
15.8383	0.657
15.8736	0.657
15.9088	0.656
15.944	0.657
15.9793	0.657
