Infrared Spectrum: 2-(N-Ethylanilino)ethanol
Formula: C 10 H 15 N O
CAS: 92-50-2
State: gas
Origin: EPA-IR VAPOR PHASE LIBRARY
1/CM	ABSORBANCE
551.7	0.00845
563.274	0.00783
574.848	0.00727
586.421	0.00621
597.995	0.00517
609.569	0.00432
621.143	0.0039
632.717	0.00402
644.291	0.00451
655.864	0.00631
667.438	0.0102
679.012	0.02081
690.586	0.0396
702.16	0.0326
713.734	0.01864
725.307	0.01676
736.881	0.03014
748.455	0.04809
760.029	0.02939
771.603	0.01458
783.177	0.01172
794.75	0.01204
806.324	0.0092
817.898	0.00646
829.472	0.00597
841.046	0.00754
852.619	0.00981
864.193	0.01086
875.767	0.01149
887.341	0.01137
898.915	0.01066
910.489	0.00994
922.062	0.00887
933.636	0.00844
945.21	0.00823
956.784	0.00899
968.358	0.01105
979.932	0.01536
991.505	0.02534
1003.08	0.03662
1014.65	0.04225
1026.23	0.06096
1037.8	0.07623
1049.37	0.06269
1060.95	0.05844
1072.52	0.05504
1084.1	0.03682
1095.67	0.02327
1107.24	0.02003
1118.82	0.02346
1130.39	0.02727
1141.97	0.02681
1153.54	0.03172
1165.11	0.03954
1176.69	0.04721
1188.26	0.04817
1199.83	0.04346
1211.41	0.04103
1222.98	0.04285
1234.56	0.04609
1246.13	0.0463
1257.7	0.04858
1269.28	0.04667
1280.85	0.03592
1292.42	0.02868
1304	0.02762
1315.57	0.02953
1327.15	0.03598
1338.72	0.05032
1350.29	0.06437
1361.87	0.06252
1373.44	0.05805
1385.02	0.05372
1396.59	0.03685
1408.16	0.02228
1419.74	0.01524
1431.31	0.01407
1442.88	0.01784
1454.46	0.02284
1466.03	0.0272
1477.61	0.03678
1489.18	0.08054
1500.75	0.13283
1512.33	0.06941
1523.9	0.02356
1535.48	0.01492
1547.05	0.01376
1558.62	0.0166
1570.2	0.02586
1581.77	0.04781
1593.34	0.09258
1604.92	0.08692
1616.49	0.03512
1628.07	0.0152
1639.64	0.00918
1651.21	0.00683
1662.79	0.00573
1674.36	0.00506
1685.93	0.00464
1697.51	0.00451
1709.08	0.00446
1720.66	0.00426
1732.23	0.00403
1743.8	0.00395
1755.38	0.00398
1766.95	0.00374
1778.53	0.00341
1790.1	0.00315
1801.67	0.00315
1813.25	0.00334
1824.82	0.00347
1836.39	0.00337
1847.97	0.00319
1859.54	0.00305
1871.12	0.00307
1882.69	0.00335
1894.26	0.00395
1905.84	0.00484
1917.41	0.00514
1928.99	0.00483
1940.56	0.00399
1952.13	0.00305
1963.71	0.00258
1975.28	0.00231
1986.85	0.00214
1998.43	0.00201
2010	0.00192
2021.58	0.00192
2033.15	0.00194
2044.72	0.00201
2056.3	0.00213
2067.87	0.00218
2079.44	0.00209
2091.02	0.002
2102.59	0.00195
2114.17	0.00186
2125.74	0.00168
2137.31	0.00151
2148.89	0.0014
2160.46	0.00139
2172.04	0.00142
2183.61	0.00154
2195.18	0.00159
2206.76	0.00166
2218.33	0.00168
2229.9	0.00164
2241.48	0.00165
2253.05	0.00157
2264.63	0.00152
2276.2	0.00156
2287.77	0.00157
2299.35	0.00167
2310.92	0.00194
2322.5	0.00198
2334.07	0.0019
2345.64	0.00198
2357.22	0.002
2368.79	0.00203
2380.36	0.00204
2391.94	0.00202
2403.51	0.00206
2415.09	0.00212
2426.66	0.00226
2438.23	0.00222
2449.81	0.00225
2461.38	0.00217
2472.96	0.0022
2484.53	0.00218
2496.1	0.00224
2507.68	0.00228
2519.25	0.0024
2530.82	0.00256
2542.4	0.00268
2553.97	0.00276
2565.55	0.00285
2577.12	0.00289
2588.69	0.00292
2600.27	0.00295
2611.84	0.00293
2623.41	0.00288
2634.99	0.00293
2646.56	0.00314
2658.14	0.00336
2669.71	0.00378
2681.28	0.00416
2692.86	0.00453
2704.43	0.00491
2716.01	0.00521
2727.58	0.00564
2739.15	0.00614
2750.73	0.00649
2762.3	0.0072
2773.87	0.00813
2785.45	0.00961
2797.02	0.0123
2808.6	0.01733
2820.17	0.02491
2831.74	0.03209
2843.32	0.03511
2854.89	0.03655
2866.47	0.04247
2878.04	0.05452
2889.61	0.05709
2901.19	0.04965
2912.76	0.0475
2924.33	0.05555
2935.91	0.07005
2947.48	0.07222
2959.06	0.06776
2970.63	0.07349
2982.2	0.07206
2993.78	0.04151
3005.35	0.02177
3016.92	0.01969
3028.5	0.02573
3040.07	0.0299
3051.65	0.02663
3063.22	0.03187
3074.79	0.03476
3086.37	0.02424
3097.94	0.02162
3109.52	0.01415
3121.09	0.00764
3132.66	0.00432
3144.24	0.00316
3155.81	0.00261
3167.38	0.00224
3178.96	0.00196
3190.53	0.00185
3202.11	0.00166
3213.68	0.00148
3225.25	0.00136
3236.83	0.00127
3248.4	0.00121
3259.98	0.00113
3271.55	0.00125
3283.12	0.00118
3294.7	0.00123
3306.27	0.00126
3317.84	0.00126
3329.42	0.00132
3340.99	0.00138
3352.57	0.00136
3364.14	0.00143
3375.71	0.00155
3387.29	0.00155
3398.86	0.00155
3410.43	0.00161
3422.01	0.00168
3433.58	0.00188
3445.16	0.00205
3456.73	0.00219
3468.3	0.00227
3479.88	0.00227
3491.45	0.00222
3503.03	0.00222
3514.6	0.00228
3526.17	0.00264
3537.75	0.00299
3549.32	0.00366
3560.89	0.0045
3572.47	0.00508
3584.04	0.00538
3595.62	0.00567
3607.19	0.00594
3618.76	0.00629
3630.34	0.0063
3641.91	0.00621
3653.49	0.00839
3665.06	0.01144
3676.63	0.00979
3688.21	0.00589
3699.78	0.00349
3711.35	0.00264
3722.93	0.00229
3734.5	0.00194
3746.08	0.00187
3757.65	0.00175
3769.22	0.00155
3780.8	0.00159
3792.37	0.00165
3803.94	0.00144
3815.52	0.00154
3827.09	0.00149
3838.67	0.0015
3850.24	0.00137
3861.81	0.00156
3873.39	0.00154
3884.96	0.00145
3896.54	0.00145
3908.11	0.00145
3919.68	0.00146
3931.26	0.00155
3942.83	0.00169
3954.4	0.00158
3965.98	0.00146
3977.55	0.00154
3989.13	0.00165
4000.7	0.00164
