Infrared Spectrum: 3,6-Diaminoacridine
Formula: C 13 H 11 N 3
CAS: 92-62-6
State: gas
Origin: EPA-IR VAPOR PHASE LIBRARY
1/CM	ABSORBANCE
501.5	0.0004134
513.074	0.0010733
524.648	0.0009352
536.222	0.0008811
547.796	0.001104
559.37	0.0008572
570.944	0.0010148
582.518	0.0010434
594.092	0.0011854
605.666	0.000976
617.24	0.0009474
628.814	0.0011459
640.388	0.0014329
651.962	0.0014636
663.536	0.0014081
675.11	0.0011237
686.684	0.0012245
698.258	0.0011479
709.832	0.0010016
721.406	0.001051
732.98	0.0009784
744.554	0.0008452
756.128	0.0010388
767.702	0.0011472
779.276	0.0010126
790.85	0.0010341
802.423	0.0010531
813.997	0.0007758
825.571	0.0008217
837.145	0.0009088
848.719	0.0011879
860.293	0.0010483
871.867	0.0007924
883.441	0.0008304
895.015	0.0009291
906.589	0.0008547
918.163	0.0007227
929.737	0.0006657
941.311	0.0006938
952.885	0.00054769
964.459	0.0006293
976.033	0.0006932
987.607	0.0006159
999.181	0.0005703
1010.76	0.0005667
1022.33	0.0005859
1033.9	0.0004393
1045.48	0.00048812
1057.05	0.00050807
1068.63	0.000356
1080.2	0.00055322
1091.77	0.0003901
1103.35	0.000367
1114.92	0.000758
1126.49	0.0006993
1138.07	0.0006314
1149.64	0.0009585
1161.22	0.0010028
1172.79	0.0011409
1184.36	0.0013354
1195.94	0.001638
1207.51	0.002698
1219.09	0.001838
1230.66	0.001728
1242.23	0.002768
1253.81	0.002298
1265.38	0.0012879
1276.96	0.0009426
1288.53	0.0008844
1300.1	0.000761
1311.68	0.0008589
1323.25	0.0008566
1334.83	0.0007222
1346.4	0.0007353
1357.97	0.000785
1369.55	0.0009616
1381.12	0.0013003
1392.7	0.0010072
1404.27	0.0010913
1415.84	0.0010677
1427.42	0.000777
1438.99	0.0008411
1450.57	0.001798
1462.14	0.002568
1473.71	0.0012744
1485.29	0.0011192
1496.86	0.0010396
1508.44	0.0011584
1520.01	0.0014578
1531.58	0.0009662
1543.16	0.0009762
1554.73	0.0009888
1566.31	0.0010715
1577.88	0.0010865
1589.45	0.001518
1601.03	0.002298
1612.6	0.004898
1624.18	0.007838
1635.75	0.006088
1647.32	0.003118
1658.9	0.0014646
1670.47	0.0009703
1682.05	0.0008507
1693.62	0.0008222
1705.19	0.0007542
1716.77	0.0006838
1728.34	0.0005971
1739.92	0.00055057
1751.49	0.0004474
1763.06	0.0004144
1774.64	0.000388
1786.21	0.0004009
1797.79	0.0004403
1809.36	0.0004185
1820.93	0.0004445
1832.51	0.0004439
1844.08	0.0004503
1855.66	0.000439
1867.23	0.0004573
1878.8	0.000475409
1890.38	0.00050645
1901.95	0.0004489
1913.53	0.0004471
1925.1	0.0004099
1936.67	0.0004181
1948.25	0.0004377
1959.82	0.0003829
1971.4	0.0004073
1982.97	0.0004284
1994.54	0.0004039
2006.12	0.0003861
2017.69	0.000356
2029.27	0.000362
2040.84	0.0003733
2052.41	0.000341
2063.99	0.000364
2075.56	0.000356
2087.14	0.000329
2098.71	0.000335
2110.28	0.000329
2121.86	0.000383
2133.43	0.000355
2145.01	0.000315
2156.58	0.000329
2168.15	0.000363
2179.73	0.000331
2191.3	0.0003723
2202.88	0.000301
2214.45	0.000306
2226.02	0.000274
2237.6	0.000267
2249.17	0.000275
2260.74	0.000341
2272.32	0.0003704
2283.89	0.000332
2295.47	0.000301
2307.04	0.000348
2318.61	0.000347
2330.19	0.000307
2341.76	0.000324
2353.34	0.000328
2364.91	0.000304
2376.48	0.000332
2388.06	0.000277
2399.63	0.000282
2411.21	0.000295
2422.78	0.000288
2434.35	0.000261
2445.93	0.000239
2457.5	0.000254
2469.08	0.000243
2480.65	0.000287
2492.22	0.000237
2503.8	0.000239
2515.37	0.000213
2526.95	0.000228
2538.52	0.000253
2550.09	0.000255
2561.67	0.000237
2573.24	0.000237
2584.82	0.000237
2596.39	0.000222
2607.96	0.000206
2619.54	0.000232
2631.11	0.000228
2642.69	0.000239
2654.26	0.000224
2665.83	0.000241
2677.41	0.000247
2688.98	0.000235
2700.56	0.000249
2712.13	0.000209
2723.7	0.000195
2735.28	0.000206
2746.85	0.000242
2758.43	0.000205
2770	0.000163
2781.57	0.000161
2793.15	0.000255
2804.72	0.000209
2816.3	0.000131
2827.87	0.000215
2839.44	0.000151
2851.02	0.000188
2862.59	0.000176
2874.17	0.000251
2885.74	0.000216
2897.31	0.000188
2908.89	0.000189
2920.46	0.000247
2932.04	0.000141
2943.61	0.000184
2955.18	0.000139
2966.76	0.000116
2978.33	0.000206
2989.91	0.000282
3001.48	0.000272
3013.05	0.0004228
3024.63	0.0006455
3036.2	0.0007221
3047.78	0.0010719
3059.35	0.0007132
3070.92	0.0004556
3082.5	0.000356
3094.07	0.00032
3105.65	0.000172
3117.22	0.000235
3128.79	0.000215
3140.37	0.00022
3151.94	0.000204
3163.52	0.000203
3175.09	0.000193
3186.66	0.00029
3198.24	0.000196
3209.81	0.000247
3221.39	0.00023
3232.96	0.000149
3244.53	0.000193
3256.11	0.000175
3267.68	0.000185
3279.26	0.000212
3290.83	0.000153
3302.4	0.000275
3313.98	0.000259
3325.55	0.000331
3337.13	0.000309
3348.7	0.000361
3360.27	0.000416
3371.85	0.000358
3383.42	0.000467625
3395	0.00052505
3406.57	0.0008569
3418.14	0.0006833
3429.72	0.0003783
3441.29	0.000326
3452.86	0.000247
3464.44	0.0003778
3476.01	0.000353
3487.59	0.0003895
3499.16	0.0003793
3510.73	0.000331
3522.31	0.000211
3533.88	0.000272
3545.46	0.000153
3557.03	0.000158
3568.6	0.000222
3580.18	0.000178
3591.75	0.000184
3603.33	0.000178
3614.9	0.000251
3626.47	0.00022
3638.05	0.000234
3649.62	0.000273
3661.2	0.000287
3672.77	0.000195
3684.34	0.000144
3695.92	0.000218
3707.49	0.000109
3719.07	0.000134
3730.64	7.2e-05
3742.21	0.000131
3753.79	0.000122
3765.36	0.000107
3776.94	0.000118
3788.51	0.00021
3800.08	0.000149
3811.66	0.000162
3823.23	9.4e-05
3834.81	0.000151
3846.38	0.00021
3857.95	0.000235
3869.53	5.6e-05
3881.1	0.000278
3892.68	0.000132
3904.25	7.8e-05
3915.82	0.000163
3927.4	0.000111
3938.97	0.000157
3950.55	6.3e-05
3962.12	9e-05
3973.69	8.6e-05
3985.27	0.000155
3996.84	0.000152
