Infrared Spectrum: 2,5-Diphenyloxazole
Formula: C 15 H 11 N O
CAS: 92-71-7
State: gas
Instrument: HP-GC/MS/IRD
Origin: NIST Mass Spectrometry Data Center
1/CM	ABSORBANCE
550	0.0002775
562	0.0003015
574	0.000189
586	0.0001275
598	6.6e-05
610	0.0001395
622	0.0002115
634	0.000399
646	0.000657
658	0.001767
670	0.003501
682	0.008166
694	0.011553
706	0.015
718	0.01014
730	0.003234
742	0.0026325
754	0.005877
766	0.006444
778	0.004374
790	0.001467
802	0.000738
814	0.0009345
826	0.0027585
838	0.00222
850	0.000633
862	0.0003975
874	0.0003795
886	0.0006915
898	0.000573
910	0.000876
922	0.001047
934	0.001374
946	0.003546
958	0.003843
970	0.0009405
982	0.0005745
994	0.000762
1006	0.001008
1018	0.002724
1030	0.004332
1042	0.001422
1054	0.003588
1066	0.004386
1078	0.001566
1090	0.0012975
1102	0.0015255
1114	0.002403
1126	0.007884
1138	0.005037
1150	0.001248
1162	0.0007275
1174	0.001188
1186	0.000837
1198	0.0003225
1210	0.0003135
1222	0.0004965
1234	0.0008175
1246	0.0005235
1258	0.000387
1270	0.0006555
1282	0.0008085
1294	0.0006975
1306	0.00066
1318	0.0010035
1330	0.001428
1342	0.0023535
1354	0.0008535
1366	0.0004965
1378	0.0005595
1390	0.0003645
1402	0.000351
1414	0.0006
1426	0.000975
1438	0.001752
1450	0.0039525
1462	0.0021135
1474	0.004896
1486	0.0098115
1498	0.0061545
1510	0.0010755
1522	0.000954
1534	0.0019605
1546	0.004482
1558	0.0026085
1570	0.002061
1582	0.0025665
1594	0.002496
1606	0.001644
1618	0.0015105
1630	0.0006735
1642	0.000759
1654	0.001161
1666	0.001041
1678	0.0005025
1690	0.00036
1702	0.0001815
1714	0.000165
1726	0.000306
1738	0.000402
1750	0.000342
1762	0.000288
1774	0.000303
1786	0.000384
1798	0.0007005
1810	0.0006285
1822	0.000357
1834	0.000285
1846	0.00021
1858	0.0003105
1870	0.0004425
1882	0.000741
1894	0.0006555
1906	0.0003705
1918	0.0002535
1930	0.000453
1942	0.0008115
1954	0.000915
1966	0.0006135
1978	0.000171
1990	8.25e-05
2002	6e-05
2014	5.7e-05
2026	4.65e-05
2038	4.65e-05
2050	8.25e-05
2062	9.9e-05
2074	7.8e-05
2086	4.35e-05
2098	4.8e-05
2110	7.5e-06
2122	3.45e-05
2134	1.5e-05
2146	4.65e-05
2158	7.65e-05
2170	0.000105
2182	0.000123
2194	9.6e-05
2206	5.55e-05
2218	6.6e-05
2230	4.95e-05
2242	6e-05
2254	7.5e-05
2266	6.6e-05
2278	0.000123
2290	0.000108
2302	0.000141
2314	0.000222
2326	0.000162
2338	0.0001785
2350	0.000129
2362	0.0001185
2374	9.6e-05
2386	9.75e-05
2398	0.000105
2410	0.0001515
2422	0.000123
2434	9e-05
2446	3.3e-05
2458	3.15e-05
2470	3.75e-05
2482	6.15e-05
2494	6.15e-05
2506	0.0001005
2518	9.9e-05
2530	5.25e-05
2542	0.0001035
2554	0.000141
2566	0.0001365
2578	0.000111
2590	0.0001335
2602	0.000243
2614	0.0002505
2626	0.0001785
2638	0.00015
2650	0.000153
2662	0.0001785
2674	0.0002625
2686	0.000186
2698	0.0001125
2710	8.85e-05
2722	0.0001035
2734	0.00012
2746	0.0001005
2758	0.000126
2770	0.000138
2782	0.000105
2794	8.25e-05
2806	0.000147
2818	0.000207
2830	0.0002595
2842	0.000207
2854	0.000186
2866	0.000207
2878	0.0002415
2890	0.000231
2902	0.0001995
2914	0.0002115
2926	0.00018
2938	0.0002025
2950	0.0002505
2962	0.0001995
2974	0.000267
2986	0.0003255
2998	0.000525
3010	0.000903
3022	0.0016575
3034	0.0029025
3046	0.004026
3058	0.004902
3070	0.0088185
3082	0.00732
3094	0.004365
3106	0.002346
3118	0.0014385
3130	0.0016155
3142	0.0010425
3154	0.000636
3166	0.0003615
3178	0.0002535
3190	0.0001845
3202	0.00018
3214	0.0001425
3226	0.000126
3238	9e-05
3250	4.65e-05
3262	0.000108
3274	0.000183
3286	7.5e-05
3298	8.1e-05
3310	5.7e-05
3322	0.0001005
3334	7.95e-05
3346	9.6e-05
3358	1.95e-05
3370	0.0001035
3382	0.0001305
3394	0.000132
3406	6.9e-05
3418	0.000102
3430	6.45e-05
3442	9.45e-05
3454	9.45e-05
3466	0.0001365
3478	7.05e-05
3490	0.000141
3502	4.95e-05
3514	1.95e-05
3526	9.9e-05
3538	0.00012
3550	8.1e-05
3562	5.55e-05
3574	0.0001185
3586	7.8e-05
3598	0.0001575
3610	0.0001035
3622	8.55e-05
3634	0.000105
3646	9e-05
3658	0.0001395
3670	0.000132
3682	0.000141
3694	0.000147
3706	0.000162
3718	0.0001065
3730	0.000153
3742	0.000198
3754	0.000117
3766	0.00021
3778	0.0001095
3790	0.000156
3802	6.75e-05
3814	0.0001215
3826	9.45e-05
3838	8.55e-05
