Infrared Spectrum: Naphthol-as-bg
Formula: C 19 H 17 N O 4
CAS: 92-73-9
State: gas
Origin: EPA-IR VAPOR PHASE LIBRARY
1/CM	ABSORBANCE
549.8	0.0003741
559.445	0.0004427
569.09	0.0008941
578.734	0.000675
588.379	0.0009119
598.024	0.0009213
607.669	0.001386
617.313	0.0010072
626.958	0.001426
636.603	0.0007163
646.248	0.000976
655.893	0.0005955
665.537	0.0007857
675.182	0.0006872
684.827	0.0009564
694.472	0.0011858
704.116	0.001626
713.761	0.001726
723.406	0.001436
733.051	0.002206
742.695	0.004176
752.34	0.001286
761.985	0.0009834
771.63	0.001796
781.275	0.001796
790.919	0.001276
800.564	0.001466
810.209	0.0011741
819.854	0.0007456
829.498	0.0006479
839.143	0.0006942
848.788	0.0007178
858.433	0.0011835
868.078	0.002316
877.722	0.002086
887.367	0.001986
897.012	0.0008485
906.657	0.0006176
916.301	0.000825
925.946	0.0002235
935.591	0.0005792
945.236	0.0008852
954.88	0.0009094
964.525	0.0009958
974.17	0.0007187
983.815	0.0006399
993.46	0.0010553
1003.1	0.0011099
1012.75	0.001636
1022.39	0.002136
1032.04	0.002596
1041.68	0.003866
1051.33	0.003446
1060.97	0.001896
1070.62	0.0009402
1080.26	0.0005111
1089.91	0.0010088
1099.55	0.0007664
1109.2	0.0011201
1118.84	0.001316
1128.49	0.001476
1138.13	0.003066
1147.78	0.003206
1157.42	0.002166
1167.07	0.003366
1176.71	0.003586
1186.36	0.003216
1196	0.003936
1205.64	0.007436
1215.29	0.013786
1224.93	0.012516
1234.58	0.005056
1244.22	0.003436
1253.87	0.002896
1263.51	0.002516
1273.16	0.003866
1282.8	0.006156
1292.45	0.005586
1302.09	0.006226
1311.74	0.006856
1321.38	0.005016
1331.03	0.003216
1340.67	0.002586
1350.32	0.002026
1359.96	0.001676
1369.61	0.001436
1379.25	0.001406
1388.9	0.001546
1398.54	0.001876
1408.18	0.002366
1417.83	0.003316
1427.47	0.004376
1437.12	0.003966
1446.76	0.004656
1456.41	0.006186
1466.05	0.005986
1475.7	0.007326
1485.34	0.007806
1494.99	0.007246
1504.63	0.008346
1514.28	0.011936
1523.92	0.017736
1533.57	0.019116
1543.21	0.009686
1552.86	0.004586
1562.5	0.003086
1572.15	0.002926
1581.79	0.003196
1591.44	0.005586
1601.08	0.005486
1610.73	0.003156
1620.37	0.002556
1630.01	0.002406
1639.66	0.002166
1649.3	0.002266
1658.95	0.003356
1668.59	0.005956
1678.24	0.007956
1687.88	0.004346
1697.53	0.002056
1707.17	0.001306
1716.82	0.0011457
1726.46	0.0009178
1736.11	0.0007622
1745.75	0.0006183
1755.4	0.0005298
1765.04	0.0005307
1774.69	0.0005073
1784.33	0.000429
1793.98	0.000407
1803.62	0.0005266
1813.27	0.0005024
1822.91	0.0004614
1832.55	0.0004566
1842.2	0.0004754
1851.84	0.000393
1861.49	0.0003824
1871.13	0.0003963
1880.78	0.0004106
1890.42	0.000399
1900.07	0.0003663
1909.71	0.0004327
1919.36	0.0003806
1929	0.00031661
1938.65	0.0004491
1948.29	0.0003507
1957.94	0.0003568
1967.58	0.0004219
1977.23	0.0003794
1986.87	0.0003974
1996.52	0.00032889
2006.16	0.000423
2015.81	0.0003825
2025.45	0.0003793
2035.1	0.00026321
2044.74	0.0003726
2054.38	0.00033265
2064.03	0.0003466
2073.67	0.0003447
2083.32	0.00031935
2092.96	0.00030729
2102.61	0.00030823
2112.25	0.0003826
2121.9	0.0003405
2131.54	0.00029076
2141.19	0.00030753
2150.83	0.00031652
2160.48	0.0003763
2170.12	0.0003413
2179.77	0.00030186
2189.41	0.00026889
2199.06	0.00032675
2208.7	0.00030344
2218.35	0.00031963
2227.99	0.00032293
2237.64	0.00030772
2247.28	0.00031935
2256.92	0.00030406
2266.57	0.00031203
2276.21	0.0003415
2285.86	0.00032678
2295.5	0.00028437
2305.15	0.0003795
2314.79	0.00032665
2324.44	0.00033154
2334.08	0.0003995
2343.73	0.0003431
2353.37	0.0003485
2363.02	0.0003875
2372.66	0.00033237
2382.31	0.0003595
2391.95	0.0003995
2401.6	0.00031332
2411.24	0.0003985
2420.89	0.0003744
2430.53	0.0003534
2440.18	0.0004456
2449.82	0.0003881
2459.47	0.0003954
2469.11	0.0003427
2478.75	0.0003997
2488.4	0.0004118
2498.04	0.0003483
2507.69	0.0003932
2517.33	0.0003755
2526.98	0.000394
2536.62	0.0004049
2546.27	0.0004371
2555.91	0.0003765
2565.56	0.0003599
2575.2	0.0004468
2584.85	0.0004224
2594.49	0.0004813
2604.14	0.0003833
2613.78	0.0005161
2623.43	0.0003899
2633.07	0.00033489
2642.72	0.0004907
2652.36	0.0004935
2662.01	0.0004306
2671.65	0.0004587
2681.29	0.0004681
2690.94	0.0003716
2700.58	0.000461
2710.23	0.0003828
2719.87	0.0004212
2729.52	0.0004206
2739.16	0.0005412
2748.81	0.0005559
2758.45	0.0004881
2768.1	0.0004873
2777.74	0.0005606
2787.39	0.0005436
2797.03	0.0006161
2806.68	0.0005669
2816.32	0.000753
2825.97	0.0009276
2835.61	0.0011441
2845.26	0.001706
2854.9	0.0012025
2864.55	0.0008659
2874.19	0.0009706
2883.84	0.0011104
2893.48	0.0011133
2903.12	0.0011261
2912.77	0.001516
2922.41	0.001436
2932.06	0.001586
2941.7	0.001996
2951.35	0.002446
2960.99	0.002156
2970.64	0.001626
2980.28	0.001436
2989.93	0.001396
2999.57	0.001946
3009.22	0.002486
3018.86	0.001646
3028.51	0.001266
3038.15	0.001536
3047.8	0.001636
3057.44	0.002196
3067.09	0.002426
3076.73	0.002086
3086.38	0.001906
3096.02	0.001856
3105.67	0.001456
3115.31	0.001476
3124.95	0.001526
3134.6	0.001626
3144.24	0.001666
3153.89	0.001676
3163.53	0.001676
3173.18	0.001726
3182.82	0.001566
3192.47	0.001686
3202.11	0.001496
3211.76	0.001526
3221.4	0.001446
3231.05	0.001456
3240.69	0.001496
3250.34	0.001426
3259.98	0.001366
3269.63	0.001466
3279.27	0.001256
3288.92	0.001346
3298.56	0.001236
3308.21	0.001386
3317.85	0.0011428
3327.49	0.001306
3337.14	0.001306
3346.78	0.0011985
3356.43	0.0012137
3366.07	0.0012039
3375.72	0.0011906
3385.36	0.0009386
3395.01	0.0010406
3404.65	0.001039
3414.3	0.0011832
3423.94	0.0009786
3433.59	0.001286
3443.23	0.002026
3452.88	0.001816
3462.52	0.0008464
3472.17	0.0007174
3481.81	0.0005876
3491.46	0.0006
3501.1	0.0005825
3510.75	0.000533
3520.39	0.0002858
3530.04	0.0004299
3539.68	0.0005652
3549.32	0.0004406
3558.97	0.00023003
3568.61	0.0003924
3578.26	0.00062
3587.9	0.0005547
3597.55	0.000136
3607.19	0.0004655
3616.84	0.00031086
3626.48	0.00028418
3636.13	0.0003771
3645.77	0.0003564
3655.42	0.0004495
3665.06	0.0005045
3674.71	0.000374
3684.35	0.0003643
3694	0.000193
3703.64	0.00028212
3713.29	0.0005636
3722.93	0.0001776
3732.58	0.0004254
3742.22	0.00035
3751.86	0.0001808
3761.51	0.0005325
3771.15	0.00029707
3780.8	0.000405
3790.44	0.000240422
3800.09	0.0004031
3809.73	0.0004942
3819.38	0.0001438
3829.02	0.0002171
3838.67	0.00027587
3848.31	0.00030878
3857.96	0.0004792
3867.6	0.00030764
3877.25	0.0003483
3886.89	0.0001958
3896.54	0.000134
3906.18	0.0004127
3915.83	0.00032125
3925.47	0.000496
3935.12	0.0003913
3944.76	0.000534
3954.41	0.0002087
3964.05	0.0003386
3973.69	0.0002251
3983.34	0.00029676
3992.98	0.0003932
