Infrared Spectrum: Naphtol-as-itr
Formula: C 19 H 16 Cl N O 4
CAS: 92-72-8
State: gas
Origin: EPA-IR VAPOR PHASE LIBRARY
1/CM	ABSORBANCE
549.8	0.00016106
559.445	0.00013989
569.09	0.000268
578.734	0.0002358
588.379	0.0004151
598.024	0.0003105
607.669	0.0003762
617.313	0.0003799
626.958	0.0005584
636.603	0.00042
646.248	0.0004443
655.893	0.00016479
665.537	0.0002995
675.182	0.0002726
684.827	0.0002508
694.472	0.0003438
704.116	0.0003718
713.761	0.0003694
723.406	0.000457
733.051	0.0007786
742.695	0.001238
752.34	0.0003706
761.985	0.000401
771.63	0.0004524
781.275	0.0003468
790.919	0.0002874
800.564	0.0002832
810.209	0.0002903
819.854	0.0004542
829.498	0.0004095
839.143	0.0005774
848.788	0.0004067
858.433	0.0003982
868.078	0.0008077
877.722	0.0007304
887.367	0.0006983
897.012	0.0006323
906.657	0.0005296
916.301	0.0003803
925.946	0.0003428
935.591	0.0003344
945.236	0.0004221
954.88	0.0004411
964.525	0.0004824
974.17	0.0003971
983.815	0.0003374
993.46	0.0002741
1003.1	0.0004603
1012.75	0.0006545
1022.39	0.0010819
1032.04	0.001348
1041.68	0.0010917
1051.33	0.0009622
1060.97	0.0007478
1070.62	0.0005457
1080.26	0.00016017
1089.91	0.0003978
1099.55	0.0003582
1109.2	0.0002849
1118.84	0.0002769
1128.49	0.000633
1138.13	0.001248
1147.78	0.0010972
1157.42	0.001428
1167.07	0.001128
1176.71	0.001378
1186.36	0.001438
1196	0.002678
1205.64	0.003978
1215.29	0.002818
1224.93	0.001258
1234.58	0.0006059
1244.22	0.0004679
1253.87	0.0002754
1263.51	0.0004282
1273.16	0.0007276
1282.8	0.001978
1292.45	0.001758
1302.09	0.001638
1311.74	0.001668
1321.38	0.001238
1331.03	0.0010082
1340.67	0.0010066
1350.32	0.0008416
1359.96	0.0007675
1369.61	0.0008839
1379.25	0.001648
1388.9	0.002258
1398.54	0.0010244
1408.18	0.0006266
1417.83	0.0006105
1427.47	0.0006925
1437.12	0.0009501
1446.76	0.001318
1456.41	0.001768
1466.05	0.001898
1475.7	0.001758
1485.34	0.002178
1494.99	0.003458
1504.63	0.006018
1514.28	0.007898
1523.92	0.006028
1533.57	0.002978
1543.21	0.001518
1552.86	0.0009819
1562.5	0.0008792
1572.15	0.0008302
1581.79	0.0009028
1591.44	0.001318
1601.08	0.001118
1610.73	0.000674
1620.37	0.0006559
1630.01	0.0008499
1639.66	0.0007218
1649.3	0.000706
1658.95	0.0009931
1668.59	0.001828
1678.24	0.002508
1687.88	0.001348
1697.53	0.0007339
1707.17	0.0004396
1716.82	0.0003297
1726.46	0.0002303
1736.11	0.00021363
1745.75	0.00016894
1755.4	0.00013095
1765.04	0.00015673
1774.69	0.0001297
1784.33	0.00010995
1793.98	0.0001079
1803.62	0.00016006
1813.27	0.000120441
1822.91	0.00010824
1832.55	0.00013691
1842.2	9.28e-05
1851.84	0.00014302
1861.49	0.00013548
1871.13	0.000118344
1880.78	0.0001705
1890.42	0.00011353
1900.07	0.00012941
1909.71	0.00016249
1919.36	0.00012934
1929	0.00016103
1938.65	0.00018869
1948.29	0.00012884
1957.94	0.00013202
1967.58	0.00013459
1977.23	0.00014365
1986.87	0.00013722
1996.52	0.00011254
2006.16	0.00015079
2015.81	0.00018455
2025.45	0.00013146
2035.1	0.00013134
2044.74	0.00013553
2054.38	0.000127475
2064.03	0.0001005
2073.67	0.00017125
2083.32	0.00013384
2092.96	0.00015807
2102.61	0.00015763
2112.25	0.00016174
2121.9	0.00013877
2131.54	0.000120838
2141.19	0.00012806
2150.83	0.00013555
2160.48	0.00012941
2170.12	0.00014405
2179.77	0.00010956
2189.41	0.00017524
2199.06	0.00013643
2208.7	0.00019135
2218.35	0.0001022
2227.99	9.14e-05
2237.64	0.00013571
2247.28	0.000126498
2256.92	0.00011699
2266.57	0.00014426
2276.21	0.00014401
2285.86	0.00015971
2295.5	0.00018805
2305.15	0.000121698
2314.79	0.00014443
2324.44	0.00017503
2334.08	0.00018147
2343.73	0.00017258
2353.37	9.46e-05
2363.02	0.00014141
2372.66	0.00011331
2382.31	0.00017483
2391.95	0.000120485
2401.6	0.00018071
2411.24	0.00015735
2420.89	0.00016645
2430.53	0.00015185
2440.18	0.00015247
2449.82	0.00016263
2459.47	0.00016336
2469.11	0.00016886
2478.75	0.00021201
2488.4	0.00016889
2498.04	0.0002323
2507.69	0.00019087
2517.33	0.00015099
2526.98	0.00017131
2536.62	0.00020885
2546.27	0.0002326
2555.91	0.00019755
2565.56	0.00020627
2575.2	0.000235
2584.85	0.00020684
2594.49	0.00019634
2604.14	0.00017004
2613.78	0.00021752
2623.43	0.00021638
2633.07	0.00015949
2642.72	0.00021608
2652.36	0.0002227
2662.01	0.00017142
2671.65	0.00020364
2681.29	0.0002181
2690.94	0.0002332
2700.58	0.00020559
2710.23	0.00018078
2719.87	0.00020384
2729.52	0.0002321
2739.16	0.0002594
2748.81	0.00020719
2758.45	0.00021103
2768.1	0.0002715
2777.74	0.0002563
2787.39	0.0002431
2797.03	0.00019317
2806.68	0.0002598
2816.32	0.0002812
2825.97	0.0003593
2835.61	0.00039
2845.26	0.0005789
2854.9	0.0003766
2864.55	0.0004459
2874.19	0.0004282
2883.84	0.0003966
2893.48	0.0004133
2903.12	0.0005093
2912.77	0.0004251
2922.41	0.000502
2932.06	0.0006095
2941.7	0.0007908
2951.35	0.0008429
2960.99	0.0006768
2970.64	0.0006222
2980.28	0.0006002
2989.93	0.0005135
2999.57	0.0006869
3009.22	0.0008256
3018.86	0.0006304
3028.51	0.0006557
3038.15	0.000512
3047.8	0.0005645
3057.44	0.0007466
3067.09	0.0008345
3076.73	0.0007034
3086.38	0.0006356
3096.02	0.0006547
3105.67	0.0006658
3115.31	0.0006584
3124.95	0.0005332
3134.6	0.0006848
3144.24	0.0006143
3153.89	0.0006355
3163.53	0.0007104
3173.18	0.000736
3182.82	0.000749
3192.47	0.0005643
3202.11	0.0006178
3211.76	0.0005468
3221.4	0.0006568
3231.05	0.0007155
3240.69	0.0005105
3250.34	0.000546
3259.98	0.000586
3269.63	0.0006682
3279.27	0.0006187
3288.92	0.0005124
3298.56	0.0005693
3308.21	0.0005521
3317.85	0.0005201
3327.49	0.0004882
3337.14	0.0005116
3346.78	0.0004928
3356.43	0.0003718
3366.07	0.000564
3375.72	0.0005284
3385.36	0.0005021
3395.01	0.0004113
3404.65	0.0004369
3414.3	0.0004565
3423.94	0.0004325
3433.59	0.0003882
3443.23	0.000628
3452.88	0.0006959
3462.52	0.0004638
3472.17	0.0003992
3481.81	0.0003006
3491.46	0.000315
3501.1	0.0002199
3510.75	0.0002352
3520.39	0.0003221
3530.04	0.0002281
3539.68	0.0003003
3549.32	0.00019695
3558.97	0.00021483
3568.61	0.00018571
3578.26	0.0001906
3587.9	0.0002967
3597.55	0.0002963
3607.19	0.0002727
3616.84	0.0002486
3626.48	0.00020971
3636.13	8.02e-05
3645.77	0.0002837
3655.42	0.0002198
3665.06	0.0002225
3674.71	0.0002551
3684.35	0.00017505
3694	0.0003303
3703.64	0.0002312
3713.29	0.0003301
3722.93	0.0003125
3732.58	0.00021457
3742.22	0.000273
3751.86	0.0002995
3761.51	0.00021338
3771.15	0.0002749
3780.8	0.0003087
3790.44	0.0003254
3800.09	0.0003378
3809.73	0.0002839
3819.38	0.0003363
3829.02	9.17e-05
3838.67	0.0001794
3848.31	0.0003062
3857.96	0.0002197
3867.6	8.29e-05
3877.25	9.67e-05
3886.89	0.0002182
3896.54	0.0003151
3906.18	0.00021252
3915.83	0.0001021
3925.47	0.000120193
3935.12	0.0002823
3944.76	0.0002436
3954.41	0.00017527
3964.05	0.0001468
3973.69	0.000355
3983.34	0.00015915
3992.98	0.00021749
