Infrared Spectrum: 3-Hydroxy-2-naphtho-2',4'-xylidide
Formula: C19 H17 N O2
CAS: 92-75-1
State: SOLID (SPLIT MULL), FLUOROLUBE FOR 3800-1330 CM^-^1, NUJOL FOR 1330-400 CM^-^1
Class: COBLENTZ III
Instrument: DOW KBr FOREPRISM-GRATING
Instrument parameters: BLAZED AT 3.5, 12.0, 20.0 MICRON AND CHANGED AT 5.0, 7.5, 14.9 MICRON
Sampling: TRANSMISSION
Resolution: 2
Origin: DOW CHEMICAL COMPANY
1/CM	TRANSMITTANCE
3790	0.6095
3781	0.6102
3772	0.611
3763	0.612
3754	0.6137
3745	0.6155
3736	0.6176
3727	0.6196
3718	0.6212
3709	0.6224
3700	0.6236
3691	0.6244
3682	0.625
3673	0.6255
3664	0.6262
3655	0.6269
3646	0.6277
3637	0.6284
3628	0.6294
3619	0.6304
3610	0.6315
3601	0.6326
3592	0.6336
3583	0.6346
3574	0.6357
3565	0.6367
3556	0.6373
3547	0.6378
3538	0.6383
3529	0.6388
3520	0.6393
3511	0.6395
3502	0.6398
3493	0.6401
3484	0.6401
3475	0.6395
3466	0.6391
3457	0.6386
3448	0.6384
3439	0.6384
3430	0.6383
3421	0.6376
3412	0.6362
3403	0.6337
3394	0.6302
3385	0.6262
3376	0.621
3367	0.6108
3358	0.5883
3349	0.5502
3340	0.4735
3331	0.4275
3322	0.4206
3313	0.4273
3304	0.44
3295	0.4506
3286	0.4576
3277	0.4583
3268	0.4528
3259	0.4423
3250	0.4319
3241	0.4208
3232	0.4105
3223	0.398
3214	0.3866
3205	0.3754
3196	0.363
3187	0.3505
3178	0.3375
3169	0.3259
3160	0.3152
3151	0.3056
3142	0.2968
3133	0.2907
3124	0.2864
3115	0.2828
3106	0.2802
3097	0.2788
3088	0.2782
3079	0.2788
3070	0.2803
3061	0.279
3052	0.2747
3043	0.2913
3034	0.3102
3025	0.3214
3016	0.3327
3007	0.3455
2998	0.3605
2989	0.3755
2980	0.388
2971	0.3997
2962	0.4105
2953	0.42
2944	0.4221
2935	0.4312
2926	0.4366
2917	0.4347
2908	0.4475
2899	0.465
2890	0.4845
2881	0.4976
2872	0.4997
2863	0.5003
2854	0.5092
2845	0.525
2836	0.5487
2827	0.5629
2818	0.5779
2809	0.5875
2800	0.5962
2791	0.6049
2782	0.613
2773	0.6208
2764	0.6283
2755	0.6335
2746	0.6356
2737	0.6332
2728	0.6314
2719	0.6341
2710	0.6408
2701	0.6458
2692	0.6462
2683	0.6485
2674	0.6521
2665	0.6576
2656	0.6645
2647	0.6707
2638	0.6768
2629	0.6808
2620	0.6835
2611	0.6851
2602	0.688
2593	0.6917
2584	0.6951
2575	0.6982
2566	0.7014
2557	0.7041
2548	0.7058
2539	0.7071
2530	0.7093
2521	0.7121
2512	0.7168
2503	0.7225
2494	0.7281
2485	0.7335
2476	0.7388
2467	0.7437
2458	0.7475
2449	0.7481
2440	0.7468
2431	0.7483
2422	0.7511
2413	0.755
2404	0.7588
2395	0.7618
2386	0.7638
2377	0.7621
2368	0.761
2359	0.7615
2350	0.7624
2341	0.7634
2332	0.7667
2323	0.7701
2314	0.7741
2305	0.7783
2296	0.7822
2287	0.7862
2278	0.7904
2269	0.7947
2260	0.7999
2251	0.8051
2242	0.8104
2233	0.8157
2224	0.821
2215	0.8262
2206	0.8311
2197	0.8355
2188	0.84
2179	0.843
2170	0.8461
2161	0.8491
2152	0.852
2143	0.8548
2134	0.8575
2125	0.8606
2116	0.8637
2107	0.8668
2098	0.8698
2089	0.873
2080	0.8766
2071	0.8718
2062	0.8775
2053	0.8766
2044	0.8775
2035	0.8807
2026	0.8835
2017	0.8801
2008	0.8786
1999	0.8742
1990	0.8728
1981	0.8739
1972	0.8782
1963	0.891
1954	0.8815
1945	0.871
1936	0.8724
1927	0.8654
1918	0.8683
1909	0.8683
1900	0.8691
1891	0.8778
1882	0.8837
1873	0.8848
1864	0.8828
1855	0.8864
1846	0.8878
1837	0.8871
1828	0.8718
1819	0.8751
1810	0.8804
1801	0.8862
1792	0.8841
1783	0.8853
1774	0.8898
1765	0.8897
1756	0.8868
1747	0.883
1738	0.8827
1729	0.8744
1720	0.8724
1711	0.8704
1702	0.8499
1693	0.8546
1684	0.8377
1675	0.7656
1666	0.6404
1657	0.427
1648	0.1408
1639	0.0968
1630	0.052
1621	0.1331
1612	0.1701
1603	0.1678
1594	0.3449
1585	0.4858
1576	0.3437
1567	0.2528
1558	0.1495
1549	0.2314
1540	0.3718
1531	0.4982
1522	0.5057
1513	0.537
1504	0.5707
1495	0.5784
1486	0.6444
1477	0.5873
1468	0.513
1459	0.377
1450	0.4406
1441	0.557
1432	0.6162
1423	0.6233
1414	0.5912
1405	0.533
1396	0.4488
1387	0.5043
1378	0.5958
1369	0.5817
1360	0.2885
1351	0.3934
1342	0.4272
1333	0.4742
1324	0.512
1315	0.6175
1306	0.6462
1297	0.6648
1288	0.6691
1279	0.6546
1270	0.6016
1261	0.6639
1252	0.6047
1243	0.721
1234	0.6034
1225	0.5616
1216	0.4515
1207	0.452
1198	0.5712
1189	0.624
1180	0.472
1171	0.5897
1162	0.6371
1153	0.6491
1144	0.6514
1135	0.7174
1126	0.7342
1117	0.7418
1108	0.7615
1099	0.7568
1090	0.7486
1081	0.7471
1072	0.6299
1063	0.6638
1054	0.7676
1045	0.7734
1036	0.7832
1027	0.7769
1018	0.7615
1009	0.7844
1000	0.8161
991	0.8209
982	0.8288
973	0.8151
964	0.8118
955	0.6831
946	0.7915
937	0.7825
928	0.7994
919	0.6767
910	0.7606
901	0.7882
892	0.7868
883	0.7561
874	0.5165
865	0.7406
856	0.7853
847	0.7371
838	0.6593
829	0.5974
820	0.6493
811	0.7628
802	0.775
793	0.7832
784	0.6533
775	0.6436
766	0.6961
757	0.6221
748	0.2884
739	0.5688
730	0.5651
721	0.5092
712	0.4976
703	0.5291
694	0.526
685	0.5444
676	0.6056
667	0.6614
658	0.6691
649	0.6591
640	0.7443
631	0.7887
622	0.6738
613	0.8195
604	0.8175
595	0.8057
586	0.8567
577	0.8482
568	0.8578
559	0.7696
550	0.8355
541	0.8368
532	0.8111
523	0.8681
514	0.8774
505	0.865
496	0.8086
487	0.874
478	0.6447
469	0.7974
460	0.9017
451	0.8952
442	0.8441
433	0.9121
424	0.9091
415	0.951
406	0.9752
