Infrared Spectrum: 4,4'-Dibromobiphenyl
Formula: C 12 H 8 Br 2
CAS: 92-86-4
State: gas
Instrument: HP-GC/MS/IRD
Origin: NIST Mass Spectrometry Data Center
1/CM	ABSORBANCE
550	0.0006498
562	0.0002394
574	0.0002698
586	0.0001273
598	0.000114
610	6.65e-05
622	0.0001406
634	0.0003192
646	0.0003097
658	0.0004541
670	0.0034998
682	0.0010507
694	0.0003895
706	0.0004313
718	0.0004579
730	0.000342
742	0.0003401
754	0.000779
766	0.0007999
778	0.0006783
790	0.0019038
802	0.0075772
814	0.0101422
826	0.0041496
838	0.0021622
850	0.0011856
862	0.0004997
874	0.0004351
886	0.0002071
898	0.000342
910	0.0002584
922	0.0001577
934	0.0002299
946	0.000171
958	0.0003629
970	0.000342
982	0.0007448
994	0.0048355
1006	0.0158023
1018	0.0064543
1030	0.0011058
1042	0.0013718
1054	0.0016188
1066	0.0068856
1078	0.0131632
1090	0.0023028
1102	0.0011932
1114	0.0008683
1126	0.0005111
1138	0.0003325
1150	0.0002698
1162	0.0003667
1174	0.0003211
1186	0.0001976
1198	0.0001121
1210	0.0003135
1222	0.0007695
1234	0.0002527
1246	6.27e-05
1258	3.61e-05
1270	1.9e-05
1282	5.7e-06
1294	0.0001045
1306	0.0001406
1318	0.0002679
1330	0.0003325
1342	0.000532
1354	0.0005852
1366	0.0007695
1378	0.0014345
1390	0.0013148
1402	0.0006631
1414	0.0004332
1426	0.000437
1438	0.0012236
1450	0.0023902
1462	0.0066538
1474	0.0146319
1486	0.0126939
1498	0.0019589
1510	0.0007353
1522	0.0004351
1534	0.0004332
1546	0.0004142
1558	0.0004009
1570	0.0003952
1582	0.0016682
1594	0.001121
1606	0.0003154
1618	0.0004636
1630	0.0005985
1642	0.0004598
1654	0.0004807
1666	0.0003515
1678	0.0001729
1690	0.0001026
1702	0.0001311
1714	0.0001178
1726	0.0001007
1738	0.0001653
1750	0.000323
1762	0.0003591
1774	0.000665
1786	0.000171
1798	0.000114
1810	7.03e-05
1822	6.08e-05
1834	6.46e-05
1846	9.5e-05
1858	0.0001178
1870	0.0001995
1882	0.0005035
1894	0.000836
1906	0.0005491
1918	0.000209
1930	6.84e-05
1942	8.36e-05
1954	7.41e-05
1966	5.7e-05
1978	3.04e-05
1990	4.56e-05
2002	0
2014	2.47e-05
2026	5.13e-05
2038	4.37e-05
2050	2.28e-05
2062	2.85e-05
2074	2.85e-05
2086	5.7e-05
2098	5.32e-05
2110	4.18e-05
2122	3.04e-05
2134	3.8e-06
2146	2.66e-05
2158	2.66e-05
2170	1.9e-05
2182	2.09e-05
2194	0
2206	3.42e-05
2218	2.47e-05
2230	3.04e-05
2242	3.42e-05
2254	5.51e-05
2266	7.98e-05
2278	9.12e-05
2290	0.0001197
2302	0.0001444
2314	0.0001311
2326	0.0001102
2338	7.98e-05
2350	8.36e-05
2362	0.0001273
2374	0.0001007
2386	4.37e-05
2398	2.85e-05
2410	6.65e-05
2422	0
2434	4.18e-05
2446	4.94e-05
2458	4.18e-05
2470	5.51e-05
2482	3.61e-05
2494	5.51e-05
2506	6.27e-05
2518	8.93e-05
2530	6.27e-05
2542	0.0001007
2554	0.0001083
2566	0.0001482
2578	0.0001064
2590	0.0001273
2602	0.0001387
2614	6.08e-05
2626	3.04e-05
2638	5.7e-05
2650	6.27e-05
2662	0.0001102
2674	4.37e-05
2686	3.42e-05
2698	1.71e-05
2710	5.32e-05
2722	4.37e-05
2734	3.8e-05
2746	4.56e-05
2758	5.7e-05
2770	4.94e-05
2782	4.94e-05
2794	8.74e-05
2806	9.31e-05
2818	0.0001007
2830	9.5e-05
2842	7.03e-05
2854	4.56e-05
2866	7.22e-05
2878	8.36e-05
2890	7.6e-05
2902	8.55e-05
2914	4.37e-05
2926	5.51e-05
2938	6.27e-05
2950	0.0001197
2962	7.79e-05
2974	0.0001007
2986	0.0001349
2998	0.0001596
3010	0.0003021
3022	0.0007277
3034	0.0017404
3046	0.0012008
3058	0.0010583
3070	0.0011362
3082	0.0016093
3094	0.0016188
3106	0.000703
3118	0.0002185
3130	0.0001824
3142	0.0001387
3154	8.74e-05
3166	9.5e-05
3178	7.22e-05
3190	5.13e-05
3202	6.84e-05
3214	2.28e-05
3226	0
3238	4.18e-05
3250	2.28e-05
3262	5.13e-05
3274	1.9e-05
3286	1.14e-05
3298	4.37e-05
3310	5.13e-05
3322	2.28e-05
3334	9.12e-05
3346	7.22e-05
3358	9.5e-05
3370	4.56e-05
3382	2.47e-05
3394	2.47e-05
3406	3.04e-05
3418	1.71e-05
3430	1.52e-05
3442	3.23e-05
3454	1.9e-05
3466	3.61e-05
3478	4.56e-05
3490	3.42e-05
3502	7.22e-05
3514	3.23e-05
3526	5.13e-05
3538	9.69e-05
3550	2.09e-05
3562	5.32e-05
3574	4.56e-05
3586	8.74e-05
3598	9.5e-05
3610	0.0001444
3622	5.32e-05
3634	5.51e-05
3646	9.88e-05
3658	7.41e-05
3670	0.0001007
3682	4.56e-05
3694	5.7e-05
3706	0.0001349
3718	7.6e-05
3730	0.0001064
3742	0.0001083
3754	7.98e-05
3766	6.46e-05
3778	6.08e-05
3790	4.94e-05
3802	0.0001064
3814	4.37e-05
3826	6.65e-05
3838	0.0001292
