Infrared Spectrum: Xanthene
Formula: C 13 H 10 O
CAS: 92-83-1
State: gas
Instrument: HP-GC/MS/IRD
Origin: NIST Mass Spectrometry Data Center
1/CM	ABSORBANCE
550	0.000525
562	0.0001995
574	0
586	0.0001575
598	0.000371
610	0.0004795
622	0.000308
634	0.0001925
646	6.65e-05
658	0.0001435
670	0.000266
682	0.0004305
694	0.0010115
706	0.001638
718	0.001561
730	0.0021805
742	0.007763
754	0.011998
766	0.0046725
778	0.001344
790	0.001288
802	0.0008645
814	0.000343
826	0.0004585
838	0.0005075
850	0.0006195
862	0.0007945
874	0.00133
886	0.0039515
898	0.0033565
910	0.000567
922	0.000427
934	0.0003465
946	0.0003885
958	0.000546
970	0.000427
982	0.0002975
994	0.000336
1006	0.000287
1018	0.000455
1030	0.0012495
1042	0.000511
1054	0.000294
1066	0.000371
1078	0.0006685
1090	0.002156
1102	0.001449
1114	0.001526
1126	0.0011935
1138	0.0006545
1150	0.000707
1162	0.0010535
1174	0.0018025
1186	0.0040425
1198	0.003647
1210	0.0021315
1222	0.004487
1234	0.006195
1246	0.017871
1258	0.035
1270	0.016107
1282	0.0057505
1294	0.0054915
1306	0.002226
1318	0.000938
1330	0.001134
1342	0.0011025
1354	0.000455
1366	0.0005985
1378	0.000826
1390	0.000959
1402	0.000784
1414	0.000672
1426	0.0009485
1438	0.00252
1450	0.0099995
1462	0.0142485
1474	0.015393
1486	0.015365
1498	0.00588
1510	0.0027965
1522	0.0014735
1534	0.0010745
1546	0.001008
1558	0.001421
1570	0.0040775
1582	0.005558
1594	0.002387
1606	0.002317
1618	0.0010395
1630	0.0006335
1642	0.0003535
1654	0.000245
1666	0.000371
1678	0.0004165
1690	0.000364
1702	0.0002415
1714	0.000154
1726	0.000112
1738	0.0001155
1750	0.0002345
1762	0.0003465
1774	0.0003675
1786	0.00035
1798	0.0002975
1810	0.0003255
1822	0.0002625
1834	0.0001715
1846	0.0002695
1858	0.0002695
1870	0.000189
1882	0.000378
1894	0.000448
1906	0.00028
1918	0.0003045
1930	0.000553
1942	0.0002275
1954	9.8e-05
1966	9.1e-05
1978	0.0001995
1990	0.0002625
2002	0.0002205
2014	0.0001575
2026	9.8e-05
2038	5.95e-05
2050	8.75e-05
2062	9.1e-05
2074	9.8e-05
2086	0.000119
2098	0.0001085
2110	0.000182
2122	0.000231
2134	0.000175
2146	7e-05
2158	2.1e-05
2170	2.1e-05
2182	3.5e-05
2194	6.3e-05
2206	9.8e-05
2218	7e-05
2230	1.75e-05
2242	1.4e-05
2254	2.1e-05
2266	1.4e-05
2278	5.25e-05
2290	7.35e-05
2302	0.0001155
2314	0.0001085
2326	6.3e-05
2338	4.55e-05
2350	9.1e-05
2362	0.000105
2374	0.0001575
2386	0.0001435
2398	0.0001155
2410	0.0001225
2422	0.000133
2434	0.00021
2446	0.000329
2458	0.0003185
2470	0.0003185
2482	0.000287
2494	0.000182
2506	0.0001785
2518	0.0001155
2530	9.8e-05
2542	0.0001085
2554	0.0001785
2566	0.000196
2578	0.00021
2590	0.0002415
2602	0.0001435
2614	9.45e-05
2626	0.0001085
2638	8.4e-05
2650	0.0001225
2662	9.45e-05
2674	8.75e-05
2686	9.45e-05
2698	0.000112
2710	0.000112
2722	9.45e-05
2734	0.000126
2746	0.0001225
2758	0.00014
2770	0.0001715
2782	0.0001855
2794	0.000224
2806	0.00028
2818	0.0003885
2830	0.0007175
2842	0.0010115
2854	0.0007945
2866	0.000798
2878	0.0009765
2890	0.001064
2902	0.001092
2914	0.0011025
2926	0.000917
2938	0.0008085
2950	0.0006265
2962	0.0003885
2974	0.000294
2986	0.000252
2998	0.0003045
3010	0.000679
3022	0.0016765
3034	0.002639
3046	0.0030695
3058	0.002828
3070	0.0035105
3082	0.00413
3094	0.002254
3106	0.0007175
3118	0.0003745
3130	0.0002905
3142	0.000182
3154	0.0001505
3166	0.000175
3178	0.0001575
3190	0.000119
3202	0.000112
3214	9.45e-05
3226	6.65e-05
3238	0.000112
3250	7e-05
3262	3.15e-05
3274	4.2e-05
3286	7.7e-05
3298	8.05e-05
3310	0.000105
3322	8.75e-05
3334	6.65e-05
3346	7e-05
3358	3.5e-05
3370	5.6e-05
3382	6.65e-05
3394	2.8e-05
3406	3.5e-05
3418	2.8e-05
3430	5.95e-05
3442	8.05e-05
3454	3.5e-05
3466	3.85e-05
3478	6.3e-05
3490	3.5e-05
3502	1.75e-05
3514	2.8e-05
3526	1.4e-05
3538	2.45e-05
3550	4.2e-05
3562	5.25e-05
3574	0
3586	4.2e-05
3598	5.6e-05
3610	5.95e-05
3622	4.2e-05
3634	7.7e-05
3646	5.6e-05
3658	7.35e-05
3670	9.1e-05
3682	6.65e-05
3694	7.35e-05
3706	5.6e-05
3718	7e-05
3730	5.95e-05
3742	6.65e-05
3754	7.7e-05
3766	8.4e-05
3778	9.8e-05
3790	7.7e-05
3802	0.000112
3814	9.45e-05
3826	7.35e-05
3838	9.1e-05
