Infrared Spectrum: Benzidine
Formula: C 12 H 12 N 2
CAS: 92-87-5
State: gas
Instrument: HP-GC/MS/IRD
Origin: NIST Mass Spectrometry Data Center
1/CM	ABSORBANCE
550	0.0027401
562	0.0016873
574	0.0015369
586	0.0017954
598	0.002115
610	0.0023641
622	0.0032853
634	0.0056494
646	0.0107395
658	0.0119427
670	0.0086104
682	0.00705
694	0.0060254
706	0.0044133
718	0.0032947
730	0.0027495
742	0.0024534
754	0.0023453
766	0.0026696
778	0.0034592
790	0.0051935
802	0.009306
814	0.012079
826	0.0079853
838	0.0041501
850	0.00235
862	0.0015228
874	0.0011374
886	0.0010434
898	0.0006815
910	0.0004512
922	0.000423
934	0.000423
946	0.0005123
958	0.0004653
970	0.0004982
982	0.0006204
994	0.0007144
1006	0.0011233
1018	0.0007426
1030	0.0007567
1042	0.0009494
1054	0.0013442
1066	0.0015933
1078	0.0017108
1090	0.0015416
1102	0.0014053
1114	0.0014617
1126	0.0018471
1138	0.0012408
1150	0.0005499
1162	0.0010528
1174	0.0065941
1186	0.0038587
1198	0.0002961
1210	0.0002632
1222	0.0005076
1234	0.001316
1246	0.0042723
1258	0.0155147
1270	0.0268464
1282	0.0084882
1294	0.002209
1306	0.000658
1318	0.0003807
1330	0.0003901
1342	0.0003572
1354	0.0002726
1366	8.93e-05
1378	2.35e-05
1390	4.23e-05
1402	0.0001833
1414	0.0002867
1426	0.0004935
1438	0.0008554
1450	0.0019317
1462	0.0025615
1474	0.0024064
1486	0.0070923
1498	0.0425679
1510	0.0195285
1522	0.0029892
1534	0.0018565
1546	0.0014899
1558	0.0013254
1570	0.001739
1582	0.0028529
1594	0.0052922
1606	0.0088971
1618	0.0224519
1630	0.0241298
1642	0.0073038
1654	0.0032759
1666	0.001974
1678	0.0013724
1690	0.0011562
1702	0.0010011
1714	0.0008319
1726	0.0006251
1738	0.0006016
1750	0.0007144
1762	0.0004324
1774	0.0002867
1786	0.0002773
1798	0.0003196
1810	0.0003055
1822	0.0003102
1834	0.0003995
1846	0.0005311
1858	0.0008507
1870	0.0011562
1882	0.0009447
1894	0.0005969
1906	0.0005358
1918	0.0006204
1930	0.0005687
1942	0.0004371
1954	0.0004042
1966	0.0004042
1978	0.0004183
1990	0.0003713
2002	0.0004324
2014	0.0004982
2026	0.00047
2038	0.0005123
2050	0.0005875
2062	0.0006392
2074	0.000611
2086	0.0005922
2098	0.0005734
2110	0.0005358
2122	0.0004606
2134	0.0004512
2146	0.0004559
2158	0.0004371
2170	0.0004371
2182	0.0004418
2194	0.0004277
2206	0.0003948
2218	0.0004324
2230	0.0004324
2242	0.0004418
2254	0.0005358
2266	0.0005405
2278	0.0005687
2290	0.0005499
2302	0.0005687
2314	0.0005499
2326	0.0005828
2338	0.0005875
2350	0.0005264
2362	0.0004935
2374	0.0004794
2386	0.0004653
2398	0.0004653
2410	0.0004794
2422	0.0004982
2434	0.0005264
2446	0.0005546
2458	0.0005499
2470	0.0004606
2482	0.0004277
2494	0.0004559
2506	0.0004794
2518	0.0005499
2530	0.0006439
2542	0.0006956
2554	0.0006063
2566	0.000517
2578	0.000517
2590	0.000517
2602	0.0005546
2614	0.000564
2626	0.0005029
2638	0.0005546
2650	0.0005076
2662	0.0005123
2674	0.0005264
2686	0.0005123
2698	0.0005452
2710	0.0004606
2722	0.0004747
2734	0.0004935
2746	0.0004982
2758	0.0005029
2770	0.0004794
2782	0.0005123
2794	0.0004794
2806	0.0004418
2818	0.0004888
2830	0.0005029
2842	0.0005734
2854	0.0005969
2866	0.0006016
2878	0.0006815
2890	0.000752
2902	0.0007191
2914	0.0006486
2926	0.000564
2938	0.0006157
2950	0.0006909
2962	0.0008084
2974	0.0011092
2986	0.001974
2998	0.0033323
3010	0.0040561
3022	0.0072286
3034	0.0116231
3046	0.0047517
3058	0.0043381
3070	0.0034028
3082	0.0025568
3094	0.002115
3106	0.0015463
3118	0.001128
3130	0.0009588
3142	0.0008695
3154	0.0006721
3166	0.0005969
3178	0.000564
3190	0.000611
3202	0.0007285
3214	0.0008178
3226	0.0008178
3238	0.0008366
3250	0.000705
3262	0.0006063
3274	0.0005311
3286	0.0004982
3298	0.0004982
3310	0.0004794
3322	0.0004982
3334	0.000517
3346	0.000564
3358	0.0006345
3370	0.0008084
3382	0.0011703
3394	0.002256
3406	0.0036331
3418	0.0031349
3430	0.0011844
3442	0.0008789
3454	0.0009588
3466	0.0012784
3478	0.0017578
3490	0.0020915
3502	0.0018471
3514	0.0012079
3526	0.0007473
3538	0.000611
3550	0.000517
3562	0.0004653
3574	0.000517
3586	0.0004935
3598	0.0004324
3610	0.0004183
3622	0.0004747
3634	0.0005264
3646	0.0004794
3658	0.0005499
3670	0.0004935
3682	0.0005123
3694	0.0005593
3706	0.0005217
3718	0.0005405
3730	0.0004841
3742	0.0004888
3754	0.0004888
3766	0.0004982
3778	0.0004888
3790	0.0004888
3802	0.0004935
3814	0.0005029
3826	0.0005781
3838	0.0005828
