Infrared Spectrum: p,p'-Biphenol
Formula: C 12 H 10 O 2
CAS: 92-88-6
State: gas
Instrument: HP-GC/MS/IRD
Origin: NIST Mass Spectrometry Data Center
1/CM	ABSORBANCE
550	0.0006318
562	0.0002106
574	0.0002808
586	0.0002418
598	3.9e-05
610	7.8e-05
622	5.2e-06
634	0.0001248
646	0.000143
658	8.06e-05
670	8.58e-05
682	7.8e-05
694	6.76e-05
706	6.76e-05
718	4.42e-05
730	9.88e-05
742	5.72e-05
754	6.24e-05
766	0.000247
778	0.0005564
790	0.0013936
802	0.0037986
814	0.0054834
826	0.005382
838	0.0023634
850	0.0008346
862	0.0003354
874	0.0002912
886	0.0003094
898	0.0003536
910	0.0001716
922	0.0001092
934	0.0001326
946	0.0001794
958	0.0001196
970	0.0001456
982	0.0001716
994	0.000234
1006	0.0004732
1018	0.0004134
1030	0.0003822
1042	0.0003094
1054	0.0002808
1066	0.0004108
1078	0.0006058
1090	0.0013754
1102	0.0021216
1114	0.0013546
1126	0.0016328
1138	0.0022204
1150	0.0026806
1162	0.0130988
1174	0.025064
1186	0.0086372
1198	0.0031694
1210	0.0019734
1222	0.002015
1234	0.0030706
1246	0.0097448
1258	0.0138996
1270	0.002249
1282	0.0009334
1294	0.0006318
1306	0.000559
1318	0.0020072
1330	0.0023504
1342	0.0015912
1354	0.0006994
1366	0.0004758
1378	0.0002366
1390	0.0002288
1402	0.0005356
1414	0.001092
1426	0.0010374
1438	0.0015938
1450	0.0012974
1462	0.0012324
1474	0.001235
1486	0.0037596
1498	0.0208182
1510	0.0058136
1522	0.001287
1534	0.0006526
1546	0.000546
1558	0.0005174
1570	0.0007644
1582	0.0018824
1594	0.0035646
1606	0.0043992
1618	0.0035646
1630	0.0012792
1642	0.0006552
1654	0.0003536
1666	0.0002574
1678	0.0001872
1690	0.0001274
1702	0.00013
1714	6.24e-05
1726	0.000104
1738	0.0001144
1750	0.0001768
1762	0.0001274
1774	6.5e-05
1786	1.3e-05
1798	2.6e-05
1810	2.86e-05
1822	5.46e-05
1834	0.0001014
1846	0.0001456
1858	0.000195
1870	0.0003042
1882	0.0002886
1894	0.0001924
1906	0.0001222
1918	8.32e-05
1930	5.72e-05
1942	1.3e-05
1954	7.8e-06
1966	3.38e-05
1978	8.06e-05
1990	6.24e-05
2002	9.36e-05
2014	9.88e-05
2026	3.9e-05
2038	4.42e-05
2050	9.36e-05
2062	0.0001352
2074	0.0001508
2086	0.0001222
2098	8.06e-05
2110	5.46e-05
2122	2.6e-05
2134	1.04e-05
2146	1.82e-05
2158	1.56e-05
2170	2.6e-05
2182	2.86e-05
2194	7.8e-06
2206	1.04e-05
2218	1.56e-05
2230	3.38e-05
2242	1.82e-05
2254	5.46e-05
2266	5.98e-05
2278	9.36e-05
2290	7.28e-05
2302	3.64e-05
2314	7.02e-05
2326	7.54e-05
2338	0.000117
2350	0.0001118
2362	2.6e-05
2374	2.6e-05
2386	5.46e-05
2398	0.0001144
2410	0.000169
2422	0.0003432
2434	0.0003328
2446	0.0001378
2458	0.0001066
2470	9.88e-05
2482	0.0001092
2494	0.00013
2506	0.000156
2518	0.0001196
2530	7.54e-05
2542	6.76e-05
2554	4.16e-05
2566	4.68e-05
2578	8.58e-05
2590	4.68e-05
2602	7.02e-05
2614	3.12e-05
2626	2.08e-05
2638	3.38e-05
2650	4.68e-05
2662	5.98e-05
2674	5.98e-05
2686	4.68e-05
2698	2.86e-05
2710	1.04e-05
2722	3.9e-05
2734	2.08e-05
2746	4.42e-05
2758	0.0001014
2770	4.68e-05
2782	6.24e-05
2794	2.34e-05
2806	0
2818	2.6e-06
2830	2.34e-05
2842	2.34e-05
2854	3.64e-05
2866	3.38e-05
2878	7.02e-05
2890	6.24e-05
2902	9.62e-05
2914	5.72e-05
2926	6.76e-05
2938	7.02e-05
2950	9.1e-05
2962	6.24e-05
2974	0.0001248
2986	0.000234
2998	0.0006162
3010	0.0009828
3022	0.0016068
3034	0.0028444
3046	0.0016952
3058	0.001209
3070	0.0012376
3082	0.0008606
3094	0.000559
3106	0.000455
3118	0.000338
3130	0.0002184
3142	0.0001638
3154	6.5e-05
3166	7.02e-05
3178	7.8e-05
3190	9.1e-05
3202	6.24e-05
3214	7.02e-05
3226	8.84e-05
3238	5.46e-05
3250	0.0001014
3262	4.16e-05
3274	7.02e-05
3286	2.6e-06
3298	0.0001092
3310	7.28e-05
3322	7.54e-05
3334	0.0001508
3346	0.000182
3358	0.0001612
3370	0.0001976
3382	0.0001586
3394	0.0001222
3406	0.0001274
3418	9.88e-05
3430	9.88e-05
3442	0.0001222
3454	0.0001274
3466	7.8e-05
3478	0.0001352
3490	0.000156
3502	5.98e-05
3514	6.5e-05
3526	6.24e-05
3538	7.8e-05
3550	0.0001144
3562	0.0001586
3574	0.000117
3586	0.0001872
3598	0.0001794
3610	0.0003094
3622	0.0005304
3634	0.0016328
3646	0.0080106
3658	0.007267
3670	0.0009984
3682	0.0003458
3694	0.0001326
3706	0.000169
3718	0.0002158
3730	9.1e-05
3742	8.58e-05
3754	2.34e-05
3766	0.0001222
3778	0.0001066
3790	0.0001014
3802	0.0001092
3814	0.0001092
3826	9.88e-05
3838	8.06e-05
