Infrared Spectrum: Acridan
Formula: C 13 H 11 N
CAS: 92-81-9
State: gas
Instrument: HP-GC/MS/IRD
Origin: NIST Mass Spectrometry Data Center
1/CM	ABSORBANCE
550	0.0004214
562	0.000196
574	0.0003283
586	0.0006321
598	0.0010731
610	0.001519
622	0.0010633
634	0.0006468
646	0.0006223
658	0.0005243
670	0.0004704
682	0.0006125
694	0.001666
706	0.0043463
718	0.0047726
730	0.0081536
742	0.0159005
754	0.0104958
766	0.0029841
778	0.0012642
790	0.0006125
802	0.0003675
814	0.0003332
826	0.0004508
838	0.0007987
850	0.0008183
862	0.0005341
874	0.0005733
886	0.0026803
898	0.002548
910	0.0005782
922	0.0002891
934	0.000196
946	0.0003626
958	0.0005439
970	0.0002744
982	0.0002499
994	0.0003528
1006	0.0002107
1018	0.0002352
1030	0.0009065
1042	0.0010535
1054	0.0001176
1066	1.47e-05
1078	9.8e-05
1090	0.0005194
1102	0.0003136
1114	0.0005096
1126	0.0009212
1138	0.0009408
1150	0.0010143
1162	0.000882
1174	0.0007889
1186	0.0006174
1198	0.0003773
1210	0.000392
1222	0.0008526
1234	0.0021511
1246	0.003577
1258	0.0038906
1270	0.0042777
1282	0.0111132
1294	0.0254408
1306	0.0113337
1318	0.0019747
1330	0.0009016
1342	0.0006762
1354	0.0007644
1366	0.0011809
1378	0.0012936
1390	0.0015435
1402	0.0031458
1414	0.0079625
1426	0.0034398
1438	0.0026019
1450	0.0046746
1462	0.0095795
1474	0.034447
1486	0.044982
1498	0.017444
1510	0.0061152
1522	0.0034545
1534	0.0025823
1546	0.0025039
1558	0.0028322
1570	0.0044002
1582	0.0094815
1594	0.0071099
1606	0.0091385
1618	0.0068698
1630	0.0018865
1642	0.000833
1654	0.0006909
1666	0.0008183
1678	0.0007791
1690	0.0005782
1702	0.0004116
1714	0.0002842
1726	0.0002401
1738	0.0002989
1750	0.0004116
1762	0.0005488
1774	0.0004557
1786	0.0004214
1798	0.0004753
1810	0.0003087
1822	0.0002989
1834	0.0003332
1846	0.0002793
1858	0.0003185
1870	0.0004802
1882	0.0005586
1894	0.0004018
1906	0.0005782
1918	0.0008036
1930	0.0003234
1942	0.0002058
1954	0.0001078
1966	6.37e-05
1978	7.35e-05
1990	6.37e-05
2002	5.39e-05
2014	0.0001029
2026	0.0001519
2038	0.0001617
2050	6.86e-05
2062	2.94e-05
2074	9.8e-06
2086	5.39e-05
2098	3.43e-05
2110	3.43e-05
2122	7.35e-05
2134	0.000147
2146	0.0001078
2158	6.86e-05
2170	8.82e-05
2182	7.35e-05
2194	5.39e-05
2206	7.84e-05
2218	9.31e-05
2230	6.86e-05
2242	3.92e-05
2254	9.8e-06
2266	1.47e-05
2278	5.88e-05
2290	9.31e-05
2302	7.84e-05
2314	0.0001176
2326	0.0001127
2338	6.86e-05
2350	3.92e-05
2362	4.9e-05
2374	5.88e-05
2386	7.84e-05
2398	5.88e-05
2410	2.45e-05
2422	3.43e-05
2434	4.41e-05
2446	9.8e-05
2458	0.0001274
2470	0.0001225
2482	0.0001323
2494	0.0001862
2506	0.000196
2518	0.0001568
2530	0.0003185
2542	0.0004312
2554	0.0003234
2566	0.0001715
2578	7.84e-05
2590	8.82e-05
2602	6.37e-05
2614	3.92e-05
2626	3.92e-05
2638	9.8e-05
2650	9.31e-05
2662	9.8e-05
2674	4.9e-05
2686	9.8e-06
2698	4.9e-06
2710	2.45e-05
2722	0.0001127
2734	0.0001225
2746	9.8e-05
2758	7.35e-05
2770	9.8e-05
2782	0.0001862
2794	0.000343
2806	0.0006321
2818	0.0011221
2830	0.0014651
2842	0.0012348
2854	0.0011319
2866	0.0013818
2878	0.0013965
2890	0.0009359
2902	0.000882
2914	0.0010094
2926	0.0013328
2938	0.0013034
2950	0.0007595
2962	0.0004214
2974	0.0003381
2986	0.000441
2998	0.0009212
3010	0.0026068
3022	0.0047971
3034	0.0051303
3046	0.0052185
3058	0.0061495
3070	0.0076342
3082	0.005096
3094	0.0028812
3106	0.001421
3118	0.0006517
3130	0.0003528
3142	0.000196
3154	0.0001225
3166	0.0001127
3178	0.0001421
3190	0.0001176
3202	0.0001323
3214	0.0001225
3226	9.31e-05
3238	4.9e-05
3250	4.41e-05
3262	1.96e-05
3274	5.88e-05
3286	5.88e-05
3298	9.8e-06
3310	6.37e-05
3322	1.96e-05
3334	1.47e-05
3346	0.0001029
3358	8.82e-05
3370	6.37e-05
3382	6.37e-05
3394	0.0001078
3406	0.0001421
3418	0.0002548
3430	0.0006958
3442	0.001764
3454	0.0017199
3466	0.0005292
3478	0.0002303
3490	0.0002009
3502	0.0002058
3514	0.0001666
3526	0.0001078
3538	8.82e-05
3550	8.33e-05
3562	7.84e-05
3574	0.0001519
3586	0.0001617
3598	0.0001323
3610	0.0001568
3622	0.000147
3634	0.0002058
3646	0.0001372
3658	0.0001911
3670	0.0001715
3682	0.0001617
3694	0.0001617
3706	0.0001617
3718	0.0002058
3730	0.0001519
3742	0.0001715
3754	0.0001813
3766	0.0001715
3778	0.0002107
3790	0.0002156
3802	0.0001813
3814	0.0001764
3826	0.0001225
3838	0.0002107
