Infrared Spectrum: Phenazine
Formula: C 12 H 8 N 2
CAS: 92-82-0
State: gas
Instrument: HP-GC/MS/IRD
Origin: NIST Mass Spectrometry Data Center
1/CM	ABSORBANCE
550	0.0003379
562	4.03e-05
574	0.0004433
586	0.0033325
598	0.0047492
610	0.0003162
622	0.0002542
634	0.000217
646	0.0007285
658	0.0008649
670	0.0003038
682	6.82e-05
694	0.0001643
706	0.0004154
718	0.0007874
730	0.0040052
742	0.0188201
754	0.0237956
766	0.006169
778	0.000744
790	0.0005084
802	0.0008835
814	0.0047771
826	0.0025885
838	0.0002635
850	0.0002108
862	0.0002418
874	0.0002883
886	0.0002666
898	0.0006231
910	0.0004619
922	0.000124
934	0.0001054
946	0.0002542
958	0.0005363
970	0.0003689
982	0.0007192
994	0.0016399
1006	0.0002604
1018	0.0001581
1030	0.0001054
1042	0.0001767
1054	0.0005053
1066	0.0015779
1078	0.0007378
1090	0.001054
1102	0.0054188
1114	0.0030101
1126	0.0010261
1138	0.0017825
1150	0.0010385
1162	0.000124
1174	5.27e-05
1186	7.13e-05
1198	0.0002542
1210	0.0003689
1222	0.000217
1234	0.0003503
1246	0.0001953
1258	0.0001364
1270	0.0001519
1282	0.0002077
1294	0.0001364
1306	0.0001209
1318	0.0006169
1330	0.0006758
1342	0.0013671
1354	0.0047957
1366	0.0045756
1378	0.0006262
1390	0.0001364
1402	0.0001209
1414	0.0001922
1426	0.0009114
1438	0.0009827
1450	0.0004681
1462	0.0005735
1474	0.000899
1486	0.0007254
1498	0.0023436
1510	0.0087668
1522	0.0045136
1534	0.0005828
1546	0.0006665
1558	0.0004743
1570	0.0001643
1582	0.000217
1594	0.0001519
1606	0.0002666
1618	0.0005456
1630	0.0005611
1642	0.0002728
1654	0.0001612
1666	0.0001116
1678	8.37e-05
1690	0.0001612
1702	0.0007781
1714	0.0010323
1726	0.0007316
1738	0.0003348
1750	0.000248
1762	0.0004123
1774	0.0004185
1786	0.0001271
1798	0.0001302
1810	0.0003937
1822	0.000589
1834	0.0007626
1846	0.0004402
1858	0.0001395
1870	6.2e-05
1882	6.51e-05
1894	7.75e-05
1906	0.000341
1918	0.0005828
1930	0.0005177
1942	0.000651
1954	0.0007843
1966	0.0002201
1978	8.06e-05
1990	0.0001085
2002	4.65e-05
2014	4.34e-05
2026	5.58e-05
2038	5.89e-05
2050	4.03e-05
2062	4.34e-05
2074	4.96e-05
2086	7.75e-05
2098	0.0001023
2110	5.27e-05
2122	3.41e-05
2134	2.79e-05
2146	3.1e-05
2158	5.27e-05
2170	6.51e-05
2182	0.0001116
2194	5.89e-05
2206	3.1e-05
2218	3.41e-05
2230	3.1e-05
2242	3.41e-05
2254	0.0001209
2266	0.0001426
2278	8.68e-05
2290	8.68e-05
2302	9.61e-05
2314	5.89e-05
2326	1.55e-05
2338	2.48e-05
2350	7.75e-05
2362	8.06e-05
2374	8.37e-05
2386	0.0001054
2398	8.68e-05
2410	5.27e-05
2422	7.13e-05
2434	6.2e-05
2446	6.51e-05
2458	6.51e-05
2470	9.61e-05
2482	9.3e-05
2494	6.82e-05
2506	6.2e-05
2518	6.51e-05
2530	5.89e-05
2542	6.51e-05
2554	5.58e-05
2566	6.2e-05
2578	6.2e-05
2590	7.75e-05
2602	7.44e-05
2614	7.75e-05
2626	8.99e-05
2638	0.0001023
2650	5.89e-05
2662	7.13e-05
2674	6.2e-05
2686	7.44e-05
2698	5.89e-05
2710	6.2e-05
2722	9.92e-05
2734	0.0001426
2746	0.0001953
2758	0.0002449
2770	0.0001395
2782	7.75e-05
2794	7.44e-05
2806	8.37e-05
2818	0.0001054
2830	9.61e-05
2842	9.92e-05
2854	0.0001426
2866	0.0001457
2878	0.0001705
2890	0.0001829
2902	0.0002263
2914	0.000186
2926	0.0001147
2938	0.0001333
2950	0.0001643
2962	0.0001643
2974	0.0002325
2986	0.0003782
2998	0.000403
3010	0.0006076
3022	0.000744
3034	0.0012152
3046	0.0030008
3058	0.0035123
3070	0.0063488
3082	0.0070308
3094	0.0044795
3106	0.0010974
3118	0.000558
3130	0.0003379
3142	0.0002139
3154	0.0002418
3166	0.0001705
3178	0.0001116
3190	0.0001209
3202	8.68e-05
3214	7.75e-05
3226	6.51e-05
3238	6.82e-05
3250	1.86e-05
3262	6.51e-05
3274	4.03e-05
3286	8.37e-05
3298	4.65e-05
3310	0.0001023
3322	8.68e-05
3334	7.13e-05
3346	7.44e-05
3358	6.82e-05
3370	5.58e-05
3382	6.82e-05
3394	5.27e-05
3406	6.82e-05
3418	7.44e-05
3430	8.68e-05
3442	8.37e-05
3454	6.2e-05
3466	6.82e-05
3478	9.3e-05
3490	5.89e-05
3502	8.37e-05
3514	9.61e-05
3526	7.75e-05
3538	0.0001209
3550	0.0001054
3562	7.75e-05
3574	5.27e-05
3586	6.82e-05
3598	0.0001116
3610	0.0001054
3622	8.99e-05
3634	8.68e-05
3646	0.0001147
3658	8.99e-05
3670	0.0001023
3682	0.000124
3694	9.61e-05
3706	0.0001178
3718	0.0001488
3730	8.37e-05
3742	7.75e-05
3754	7.13e-05
3766	0.0001147
3778	9.92e-05
3790	8.99e-05
3802	9.61e-05
3814	8.99e-05
3826	8.99e-05
3838	0.000124
