Infrared Spectrum: Thianthrene
Formula: C 12 H 8 S 2
CAS: 92-85-3
State: gas
Instrument: HP-GC/MS/IRD
Origin: NIST Mass Spectrometry Data Center
1/CM	ABSORBANCE
550	0.0005232
562	0.0002688
574	0.0001224
586	0.0001752
598	0.0001464
610	0.0001752
622	0.0002184
634	0.0003216
646	0.0004896
658	0.0017616
670	0.0017112
682	0.000516
694	0.0005568
706	0.00054
718	0.000864
730	0.0041856
742	0.0220512
754	0.0107208
766	0.0010992
778	0.0003216
790	0.0004176
802	0.0002304
814	0.000204
826	0.0003168
838	0.0002424
850	0.0003792
862	0.0001392
874	0.0001176
886	0.0001896
898	0.0002112
910	0.0001512
922	0.0002112
934	0.0004896
946	0.0003096
958	0.0002376
970	0.0003288
982	0.0004152
994	0.0002736
1006	0.0002856
1018	0.0011664
1030	0.002004
1042	0.0005784
1054	0.0005424
1066	0.000396
1078	0.0003384
1090	0.0012024
1102	0.0048936
1114	0.0019848
1126	0.0004752
1138	0.0005208
1150	0.0005808
1162	0.0004152
1174	0.000156
1186	0.0001104
1198	9.84e-05
1210	8.64e-05
1222	0.000204
1234	0.0003888
1246	0.0015168
1258	0.0023568
1270	0.0007056
1282	0.0002256
1294	0.0001176
1306	8.64e-05
1318	6.72e-05
1330	0.000156
1342	0.0001176
1354	0.0003576
1366	0.000324
1378	0.0002712
1390	0.0004536
1402	0.0008376
1414	0.001512
1426	0.0049512
1438	0.0134328
1450	0.0112416
1462	0.002544
1474	0.0010272
1486	0.0008232
1498	0.0005448
1510	0.0002256
1522	0.0002208
1534	0.0002808
1546	0.0007872
1558	0.0016824
1570	0.0007032
1582	0.0006312
1594	0.0007584
1606	0.0004968
1618	0.0001104
1630	5.52e-05
1642	5.76e-05
1654	2.88e-05
1666	0.0002784
1678	0.0005832
1690	0.00024
1702	0.0001992
1714	0.000264
1726	8.64e-05
1738	4.56e-05
1750	5.28e-05
1762	0.0001224
1774	0.0003216
1786	0.0006024
1798	0.0003312
1810	0.0002568
1822	0.0004584
1834	0.0001632
1846	5.76e-05
1858	0.000216
1870	0.0004248
1882	0.00024
1894	0.000504
1906	0.0006384
1918	0.0002832
1930	0.0005232
1942	0.000612
1954	0.0001344
1966	5.76e-05
1978	6.48e-05
1990	7.2e-05
2002	6.24e-05
2014	6.48e-05
2026	4.8e-05
2038	1.68e-05
2050	2.88e-05
2062	1.68e-05
2074	3.12e-05
2086	2.88e-05
2098	3.6e-05
2110	5.28e-05
2122	3.84e-05
2134	1.2e-05
2146	1.68e-05
2158	4.32e-05
2170	3.36e-05
2182	3.84e-05
2194	9.6e-06
2206	3.84e-05
2218	3.12e-05
2230	2.64e-05
2242	2.64e-05
2254	5.76e-05
2266	7.68e-05
2278	0.0001224
2290	0.0001056
2302	8.88e-05
2314	0.0001104
2326	9.6e-05
2338	2.16e-05
2350	5.28e-05
2362	1.44e-05
2374	2.64e-05
2386	4.56e-05
2398	5.76e-05
2410	6.96e-05
2422	9.12e-05
2434	0.0001104
2446	6.72e-05
2458	3.84e-05
2470	4.8e-05
2482	2.4e-05
2494	5.52e-05
2506	8.88e-05
2518	7.92e-05
2530	0.0001368
2542	0.0002256
2554	0.0001824
2566	9.6e-05
2578	7.44e-05
2590	9.84e-05
2602	7.68e-05
2614	0.0001248
2626	8.88e-05
2638	4.32e-05
2650	4.08e-05
2662	3.6e-05
2674	5.28e-05
2686	5.28e-05
2698	6.24e-05
2710	4.32e-05
2722	3.84e-05
2734	3.12e-05
2746	3.6e-05
2758	1.92e-05
2770	1.68e-05
2782	0
2794	1.92e-05
2806	5.28e-05
2818	6.72e-05
2830	6.48e-05
2842	4.8e-05
2854	4.8e-05
2866	4.8e-05
2878	1.92e-05
2890	4.56e-05
2902	1.92e-05
2914	1.2e-05
2926	3.36e-05
2938	5.52e-05
2950	8.4e-05
2962	0.0001632
2974	0.00024
2986	0.0004416
2998	0.000492
3010	0.000372
3022	0.0003144
3034	0.0003912
3046	0.0010512
3058	0.0049416
3070	0.0093672
3082	0.003048
3094	0.000756
3106	0.000552
3118	0.0007824
3130	0.00072
3142	0.0002928
3154	0.000144
3166	8.64e-05
3178	3.12e-05
3190	6e-05
3202	5.28e-05
3214	6e-05
3226	5.28e-05
3238	6.48e-05
3250	3.6e-05
3262	3.84e-05
3274	3.12e-05
3286	5.28e-05
3298	3.36e-05
3310	5.52e-05
3322	0
3334	3.6e-05
3346	5.76e-05
3358	2.16e-05
3370	6.72e-05
3382	6.48e-05
3394	5.76e-05
3406	4.56e-05
3418	2.4e-05
3430	5.04e-05
3442	3.12e-05
3454	4.08e-05
3466	8.64e-05
3478	5.04e-05
3490	8.88e-05
3502	2.64e-05
3514	3.6e-05
3526	1.68e-05
3538	1.92e-05
3550	5.52e-05
3562	3.6e-05
3574	5.04e-05
3586	3.6e-05
3598	4.32e-05
3610	2.4e-05
3622	7.2e-05
3634	3.12e-05
3646	3.36e-05
3658	8.4e-05
3670	4.32e-05
3682	5.28e-05
3694	6.48e-05
3706	8.64e-05
3718	9.84e-05
3730	0.0001056
3742	0.0001248
3754	6.72e-05
3766	9.84e-05
3778	0.0001344
3790	0.0001536
3802	0.0001464
3814	0.0001992
3826	0.000132
3838	7.44e-05
