Infrared Spectrum: P-PHENYLACETOPHENONE
Formula: C14 H12 O
CAS: 92-91-1
State: SOLID (MINERAL OIL MULL)
Melting point: 120-121 C
Class: COBLENTZ
Instrument: Not specified, most likely a prism, grating, or hybrid spectrometer.
Sampling: TRANSMISSION
Resolution: 4
Origin: WYANDOTTE CHEMICALS CORP., WYANDOTTE, MICHIGAN, USA
MICROMETERS	TRANSMITTANCE
2.013	0.539
2.05281	0.541
2.09262	0.568
2.13243	0.549
2.17225	0.548
2.21206	0.546
2.25187	0.541
2.29168	0.548
2.33149	0.553
2.3713	0.561
2.41111	0.571
2.45093	0.578
2.49074	0.584
2.53055	0.589
2.57036	0.596
2.61017	0.583
2.64998	0.598
2.6898	0.596
2.72961	0.591
2.76942	0.586
2.80923	0.566
2.84904	0.569
2.88885	0.569
2.92866	0.578
2.96848	0.583
3.00829	0.574
3.0481	0.583
3.08791	0.583
3.12772	0.576
3.16753	0.566
3.20734	0.531
3.24716	0.468
3.28697	0.458
3.32678	0.212
3.36659	0.049
3.4064	0.053
3.44621	0.107
3.48602	0.098
3.52584	0.387
3.56565	0.496
3.60546	0.528
3.64527	0.529
3.68508	0.531
3.72489	0.539
3.76471	0.551
3.80452	0.556
3.84433	0.564
3.88414	0.573
3.92395	0.593
3.96376	0.594
4.00357	0.601
4.04339	0.611
4.0832	0.612
4.12301	0.619
4.16282	0.626
4.20263	0.634
4.24244	0.616
4.28225	0.617
4.32207	0.631
4.36188	0.662
4.40169	0.681
4.4415	0.674
4.48131	0.686
4.52112	0.692
4.56093	0.697
4.60075	0.704
4.64056	0.714
4.68037	0.722
4.72018	0.732
4.75999	0.739
4.7998	0.749
4.83962	0.75
4.87943	0.759
4.91924	0.762
4.95905	0.76
4.99886	0.774
5.03867	0.767
5.07848	0.77
5.1183	0.76
5.15811	0.77
5.19792	0.775
5.23773	0.78
5.27754	0.792
5.31735	0.784
5.35716	0.813
5.39698	0.832
5.43679	0.822
5.4766	0.833
5.51641	0.85
5.55622	0.837
5.59603	0.84
5.63584	0.84
5.67566	0.845
5.71547	0.847
5.75528	0.867
5.79509	0.868
5.8349	0.868
5.87471	0.745
5.91453	0.348
5.95434	0.121
5.99415	0.526
6.03396	0.617
6.07377	0.651
6.11358	0.747
6.15339	0.742
6.19321	0.242
6.23302	0.619
6.27283	0.564
6.31264	0.725
6.35245	0.644
6.39226	0.687
6.43207	0.699
6.47189	0.729
6.5117	0.747
6.55151	0.727
6.59132	0.739
6.63113	0.777
6.67094	0.684
6.71075	0.621
6.75057	0.561
6.79038	0.353
6.83019	0.333
6.87	0.42
6.90981	0.5
6.94962	0.44
6.98944	0.48
7.02925	0.661
7.06906	0.401
7.10887	0.272
7.14868	0.463
7.18849	0.498
7.2283	0.415
7.26812	0.405
7.30793	0.302
7.34774	0.292
7.38755	0.661
7.42736	0.591
7.46717	0.775
7.50698	0.8
7.5468	0.772
7.58661	0.742
7.62642	0.827
7.66623	0.845
7.70604	0.71
7.74585	0.526
7.78566	0.372
7.82548	0.579
7.86529	0.262
7.9051	0.197
7.94491	0.41
7.98472	0.538
8.02453	0.631
8.06434	0.681
8.10416	0.707
8.14397	0.742
8.18378	0.77
8.22359	0.634
8.2634	0.465
8.30321	0.666
8.34303	0.764
8.38284	0.8
8.42265	0.803
8.46246	0.516
8.50227	0.704
8.54208	0.764
8.58189	0.777
8.62171	0.82
8.66152	0.837
8.70133	0.842
8.74114	0.85
8.78095	0.803
8.82076	0.78
8.86057	0.762
8.90039	0.644
8.9402	0.757
8.98001	0.83
9.01982	0.855
9.05963	0.853
9.09944	0.853
9.13925	0.848
9.17907	0.823
9.21888	0.739
9.25869	0.679
9.2985	0.754
9.33831	0.815
9.37812	0.847
9.41794	0.857
9.45775	0.862
9.49756	0.873
9.53737	0.873
9.57718	0.872
9.61699	0.86
9.6568	0.873
9.69662	0.877
9.73643	0.872
9.77624	0.782
9.81605	0.805
9.85586	0.88
9.89567	0.84
9.93548	0.681
9.9753	0.794
10.0151	0.828
10.0549	0.872
10.0947	0.882
10.1345	0.853
10.1744	0.873
10.2142	0.892
10.254	0.875
10.2938	0.823
10.3336	0.789
10.3734	0.581
10.4132	0.382
10.453	0.536
10.4928	0.664
10.5327	0.737
10.5725	0.795
10.6123	0.828
10.6521	0.842
10.6919	0.857
10.7317	0.862
10.7715	0.868
10.8113	0.873
10.8511	0.878
10.891	0.882
10.9308	0.825
10.9706	0.862
11.0104	0.895
11.0502	0.9
11.09	0.903
11.1298	0.906
11.1696	0.911
11.2095	0.911
11.2493	0.908
11.2891	0.905
11.3289	0.91
11.3687	0.91
11.4085	0.911
11.4483	0.913
11.4881	0.913
11.5279	0.901
11.5678	0.888
11.6076	0.832
11.6474	0.697
11.6872	0.745
11.727	0.79
11.7668	0.627
11.8066	0.646
11.8464	0.606
11.8862	0.333
11.9261	0.39
11.9659	0.541
12.0057	0.478
12.0455	0.377
12.0853	0.594
12.1251	0.81
12.1649	0.89
12.2047	0.92
12.2446	0.93
12.2844	0.94
12.3242	0.946
12.364	0.95
12.4038	0.95
12.4436	0.951
12.4834	0.95
12.5232	0.95
12.563	0.941
12.6029	0.945
12.6427	0.941
12.6825	0.936
12.7223	0.92
12.7621	0.92
12.8019	0.888
12.8417	0.863
12.8815	0.777
12.9213	0.666
12.9612	0.514
13.001	0.257
13.0408	0.079
13.0806	0.061
13.1204	0.209
13.1602	0.428
13.2	0.624
13.2398	0.739
13.2796	0.805
13.3195	0.842
13.3593	0.882
13.3991	0.895
13.4389	0.901
13.4787	0.905
13.5185	0.903
13.5583	0.901
13.5981	0.898
13.638	0.89
13.6778	0.877
13.7176	0.862
13.7574	0.82
13.7972	0.747
13.837	0.601
13.8768	0.418
13.9166	0.365
13.9564	0.526
13.9963	0.681
14.0361	0.794
14.0759	0.85
14.1157	0.882
14.1555	0.89
14.1953	0.89
14.2351	0.882
14.2749	0.86
14.3147	0.827
14.3546	0.789
14.3944	0.699
14.4342	0.566
14.474	0.421
14.5138	0.297
14.5536	0.272
14.5934	0.342
14.6332	0.456
14.6731	0.556
14.7129	0.602
14.7527	0.583
14.7925	0.531
14.8323	0.519
14.8721	0.581
14.9119	0.649
14.9517	0.704
14.9915	0.709
15.0314	0.682
15.0712	0.662
15.111	0.692
15.1508	0.74
15.1906	0.755
15.2304	0.745
15.2702	0.73
15.31	0.704
15.3498	0.7
15.3897	0.679
15.4295	0.669
15.4693	0.652
15.5091	0.641
15.5489	0.629
15.5887	0.612
15.6285	0.607
15.6683	0.594
15.7081	0.579
15.748	0.563
15.7878	0.549
15.8276	0.531
15.8674	0.524
15.9072	0.514
15.947	0.5
15.9868	0.49
