Infrared Spectrum: p-Diphenylbenzene
Formula: C 18 H 14
CAS: 92-94-4
State: gas
Instrument: HP-GC/MS/IRD
Origin: NIST Mass Spectrometry Data Center
1/CM	ABSORBANCE
550	0.0005202
562	0.0003843
574	0.0003492
586	0.0001683
598	5.58e-05
610	0.0001314
622	0.000153
634	0.0001377
646	0.000261
658	0.0006282
670	0.0011259
682	0.002808
694	0.0064512
706	0.0049473
718	0.0022194
730	0.002367
742	0.005211
754	0.0072909
766	0.0033876
778	0.0012402
790	0.0005373
802	0.0005247
814	0.0004923
826	0.0011556
838	0.0025182
850	0.0011925
862	0.0003285
874	0.0002061
886	0.0001584
898	0.000216
910	0.0002619
922	0.0001377
934	0.000162
946	0.0002133
958	0.0002934
970	0.0002421
982	0.0001917
994	0.0005616
1006	0.0035316
1018	0.0007749
1030	0.0004158
1042	0.0002988
1054	0.0003294
1066	0.0006777
1078	0.0005562
1090	0.0002583
1102	0.0003222
1114	0.0002889
1126	0.0001674
1138	8.82e-05
1150	7.74e-05
1162	8.91e-05
1174	0.0002007
1186	0.000324
1198	7.83e-05
1210	9.9e-05
1222	0.0001521
1234	0.0002466
1246	0.0002007
1258	0.0001728
1270	0.0001584
1282	0.0001692
1294	0.0001737
1306	0.0001935
1318	0.0001584
1330	0.0002286
1342	0.0001377
1354	0.0001503
1366	0.0002133
1378	0.0003825
1390	0.0004473
1402	0.0004374
1414	0.0003024
1426	0.000279
1438	0.0005283
1450	0.0008091
1462	0.0009702
1474	0.0040401
1486	0.0070236
1498	0.0011043
1510	0.0003501
1522	0.0005364
1534	0.000459
1546	0.0001521
1558	0.0001143
1570	0.0003969
1582	0.0008037
1594	0.002079
1606	0.0017568
1618	0.0005571
1630	0.0002025
1642	0.0001755
1654	0.0001899
1666	0.0003564
1678	0.0002637
1690	0.0001521
1702	4.95e-05
1714	9.63e-05
1726	0.0001737
1738	0.0001989
1750	0.0001962
1762	0.000153
1774	0.0002691
1786	0.0005013
1798	0.0005346
1810	0.0002385
1822	0.0001962
1834	9.54e-05
1846	9.09e-05
1858	0.0001998
1870	0.0003258
1882	0.000504
1894	0.0004104
1906	0.0003663
1918	0.0002592
1930	0.0003474
1942	0.0004365
1954	0.0005229
1966	0.0001602
1978	8.37e-05
1990	6.48e-05
2002	4.32e-05
2014	6.84e-05
2026	6.66e-05
2038	5.13e-05
2050	3.42e-05
2062	2.7e-05
2074	3.96e-05
2086	4.05e-05
2098	4.14e-05
2110	2.97e-05
2122	3.69e-05
2134	4.77e-05
2146	3.69e-05
2158	1.62e-05
2170	5.13e-05
2182	3.78e-05
2194	3.24e-05
2206	3.96e-05
2218	4.14e-05
2230	5.76e-05
2242	5.13e-05
2254	5.04e-05
2266	4.86e-05
2278	8.01e-05
2290	7.83e-05
2302	4.5e-05
2314	0.0001017
2326	2.97e-05
2338	2.43e-05
2350	1.98e-05
2362	9.9e-06
2374	7.2e-06
2386	3.33e-05
2398	4.68e-05
2410	6.3e-05
2422	3.69e-05
2434	2.61e-05
2446	2.52e-05
2458	2.16e-05
2470	3.33e-05
2482	3.33e-05
2494	3.33e-05
2506	3.6e-05
2518	6.39e-05
2530	5.85e-05
2542	3.69e-05
2554	4.5e-05
2566	5.85e-05
2578	6.66e-05
2590	6.12e-05
2602	8.19e-05
2614	7.92e-05
2626	7.74e-05
2638	3.96e-05
2650	6.03e-05
2662	3.96e-05
2674	4.14e-05
2686	3.33e-05
2698	4.32e-05
2710	4.05e-05
2722	1.98e-05
2734	6.3e-06
2746	4.32e-05
2758	4.5e-05
2770	4.23e-05
2782	5.31e-05
2794	3.69e-05
2806	4.23e-05
2818	5.67e-05
2830	7.47e-05
2842	7.38e-05
2854	0.0001035
2866	0.0001593
2878	0.0002088
2890	0.0002322
2902	0.0001692
2914	0.0001332
2926	0.0001287
2938	0.0001656
2950	0.0002232
2962	0.0002556
2974	0.0003168
2986	0.0004176
2998	0.0005688
3010	0.0009567
3022	0.0024723
3034	0.0062028
3046	0.003294
3058	0.0040284
3070	0.0077787
3082	0.0043758
3094	0.0029196
3106	0.0016182
3118	0.0008172
3130	0.0005211
3142	0.0003159
3154	0.0002196
3166	0.0001467
3178	0.0001143
3190	0.0001053
3202	0.0001053
3214	9.45e-05
3226	5.94e-05
3238	8.55e-05
3250	6.39e-05
3262	6.66e-05
3274	6.12e-05
3286	8.64e-05
3298	5.4e-05
3310	4.5e-05
3322	5.58e-05
3334	7.47e-05
3346	7.29e-05
3358	8.01e-05
3370	8.37e-05
3382	5.58e-05
3394	5.94e-05
3406	5.76e-05
3418	7.29e-05
3430	7.29e-05
3442	7.2e-05
3454	0.0001242
3466	0.0001044
3478	7.74e-05
3490	4.68e-05
3502	4.14e-05
3514	5.67e-05
3526	1.08e-05
3538	9.81e-05
3550	4.5e-05
3562	4.05e-05
3574	6.93e-05
3586	1.89e-05
3598	7.74e-05
3610	2.16e-05
3622	7.92e-05
3634	8.64e-05
3646	8.28e-05
3658	0.0001161
3670	9.18e-05
3682	0.000135
3694	0.0001215
3706	0.0001278
3718	9.63e-05
3730	3.87e-05
3742	6.3e-06
3754	7.02e-05
3766	0.0001377
3778	0.0001251
3790	0.0001152
3802	5.94e-05
3814	9.18e-05
3826	0.000153
3838	9.54e-05
