Infrared Spectrum: QUINALDINE, 6-DIMETHYLAMINO-
Formula: C12 H14 N2
CAS: 92-99-9
State: SOLUTION (10% CCl4 FOR 3800-1330, 10% CS2 FOR 1330-460 CM^-^1)
Class: COBLENTZ III
Instrument: DOW KBr FOREPRISM-GRATING
Instrument parameters: BLAZED AT 3.5, 12.0, 20.0 MICRON AND CHANGED AT 5.0, 7.5, 14.9 MICRON
Sampling: TRANSMISSION
Path length: 0.012 CM, 0.012 CM
Resolution: 2
Origin: DOW CHEMICAL COMPANY
1/CM	TRANSMITTANCE
455	0.8321
464	0.8234
473	0.7262
482	0.8104
491	0.8504
500	0.8289
509	0.8211
518	0.8862
527	0.9037
536	0.8947
545	0.8928
554	0.9113
563	0.8815
572	0.8668
581	0.6057
590	0.7428
599	0.9068
608	0.9277
617	0.9286
626	0.923
635	0.9039
644	0.86
653	0.7586
662	0.6496
671	0.871
680	0.8966
689	0.9085
698	0.9163
707	0.9193
716	0.9206
725	0.919
734	0.9142
743	0.9058
752	0.9112
761	0.892
770	0.884
779	0.8984
788	0.8752
797	0.731
806	0.7444
815	0.4574
824	0.0076
833	0.575
842	0.1675
851	0.3414
860	0.6436
869	0.7386
878	0.8033
887	0.8239
896	0.523
905	0.8716
914	0.8925
923	0.8943
932	0.8803
941	0.7938
950	0.6487
959	0.6988
968	0.2298
977	0.7542
986	0.8591
995	0.8705
1004	0.8418
1013	0.8545
1022	0.82
1031	0.7675
1040	0.809
1049	0.7787
1058	0.5362
1067	0.6347
1076	0.7467
1085	0.7594
1094	0.7289
1103	0.6403
1112	0.3225
1121	0.0442
1130	0.5729
1139	0.5205
1148	0.5466
1157	0.3718
1166	0.5473
1175	0.705
1184	0.5348
1193	0.3121
1202	0.6557
1211	0.7198
1220	0.7007
1229	0.5818
1238	0.5056
1247	0.527
1256	0.6519
1265	0.5401
1274	0.7571
1283	0.7892
1292	0.7675
1301	0.6978
1310	0.6352
1319	0.3382
1328	0.2213
1337	0.4396
1346	0.559
1355	0.2683
1364	0.0665
1373	0.0722
1382	0.2098
1391	0.5181
1400	0.5287
1409	0.4525
1418	0.451
1427	0.6006
1436	0.4688
1445	0.2976
1454	0.3712
1463	0.4003
1472	0.2965
1481	0.2841
1490	0.2145
1499	0.1046
1508	0.0038
1517	0.1068
1526	0.2541
1535	0.3128
1544	0.3025
1553	0.2547
1562	0.2869
1571	0.2673
1580	0.3645
1589	0.2435
1598	0.015
1607	0.1954
1616	0.157
1625	0.0123
1634	0.3682
1643	0.6034
1652	0.7324
1661	0.7804
1670	0.8093
1679	0.8195
1688	0.8158
1697	0.8325
1706	0.8486
1715	0.8502
1724	0.8613
1733	0.8704
1742	0.8758
1751	0.8778
1760	0.879
1769	0.8752
1778	0.8747
1787	0.8854
1796	0.8932
1805	0.8918
1814	0.8978
1823	0.9014
1832	0.8977
1841	0.8901
1850	0.8944
1859	0.9011
1868	0.9078
1877	0.9071
1886	0.8947
1895	0.8768
1904	0.8654
1913	0.8634
1922	0.8551
1931	0.8688
1940	0.8789
1949	0.8912
1958	0.8927
1967	0.9021
1976	0.9128
1985	0.9128
1994	0.9066
2003	0.9499
2012	0.95
2021	0.95
2030	0.9508
2039	0.9509
2048	0.9511
2057	0.9498
2066	0.9466
2075	0.9458
2084	0.9475
2093	0.9475
2102	0.9464
2111	0.9427
2120	0.9364
2129	0.937
2138	0.9418
2147	0.9462
2156	0.948
2165	0.9467
2174	0.9492
2183	0.9511
2192	0.9502
2201	0.9486
2210	0.9505
2219	0.9546
2228	0.9516
2237	0.9474
2246	0.9432
2255	0.9395
2264	0.9351
2273	0.9283
2282	0.9103
2291	0.9177
2300	0.9232
2309	0.9286
2318	0.9334
2327	0.9383
2336	0.9412
2345	0.943
2354	0.9446
2363	0.9461
2372	0.9454
2381	0.9381
2390	0.9425
2399	0.9485
2408	0.9506
2417	0.9498
2426	0.947
2435	0.9428
2444	0.9392
2453	0.9354
2462	0.9312
2471	0.9352
2480	0.9391
2489	0.9388
2498	0.9391
2507	0.9414
2516	0.9441
2525	0.9458
2534	0.9459
2543	0.9427
2552	0.9368
2561	0.9255
2570	0.9333
2579	0.9399
2588	0.9343
2597	0.9273
2606	0.9346
2615	0.936
2624	0.9338
2633	0.9294
2642	0.9287
2651	0.9291
2660	0.9259
2669	0.9199
2678	0.9139
2687	0.9078
2696	0.901
2705	0.8935
2714	0.8857
2723	0.8766
2732	0.8668
2741	0.8545
2750	0.8354
2759	0.8086
2768	0.7737
2777	0.7188
2786	0.6434
2795	0.4232
2804	0.3659
2813	0.4123
2822	0.4878
2831	0.502
2840	0.4396
2849	0.3668
2858	0.378
2867	0.3882
2876	0.3579
2885	0.3628
2894	0.3784
2903	0.3892
2912	0.3336
2921	0.2939
2930	0.3376
2939	0.3632
2948	0.356
2957	0.3629
2966	0.4328
2975	0.4788
2984	0.4632
2993	0.4716
3002	0.5421
3011	0.6404
3020	0.6703
3029	0.6618
3038	0.6474
3047	0.5998
3056	0.5738
3065	0.6353
3074	0.6903
3083	0.7115
3092	0.7393
3101	0.8495
3110	0.8912
3119	0.906
3128	0.9151
3137	0.9225
3146	0.9287
3155	0.9321
3164	0.93
3173	0.9302
3182	0.9328
3191	0.9344
3200	0.9361
3209	0.9373
3218	0.9371
3227	0.9367
3236	0.937
3245	0.9375
3254	0.934
3263	0.9415
3272	0.9446
3281	0.9474
3290	0.9498
3299	0.9509
3308	0.9512
3317	0.951
3326	0.9504
3335	0.9497
3344	0.9491
3353	0.9488
3362	0.9489
3371	0.949
3380	0.9492
3389	0.9493
3398	0.9503
3407	0.9513
3416	0.9525
3425	0.954
3434	0.9556
3443	0.9571
3452	0.9591
3461	0.9615
3470	0.9639
3479	0.9663
3488	0.9686
3497	0.9705
3506	0.9723
3515	0.9741
3524	0.9759
3533	0.9773
3542	0.9788
3551	0.9802
3560	0.981
3569	0.9817
3578	0.9821
3587	0.9821
3596	0.9824
3605	0.9825
3614	0.9825
3623	0.9828
3632	0.984
3641	0.9835
3650	0.9814
3659	0.9778
3668	0.9754
3677	0.9782
3686	0.9812
3695	0.9842
3704	0.9871
3713	0.9894
3722	0.9906
3731	0.9914
3740	0.9914
3749	0.9913
3758	0.9917
3767	0.9921
3776	0.993
3785	0.9937
3794	0.9943
