Infrared Spectrum: Acetamide, N,N-dimethyl-, hydrochloride
Formula: C4 H10 Cl N O
CAS: 920-54-7
State: SOLID (OIL MULL)
Class: COBLENTZ III
Instrument: PERKIN-ELMER 521 (GRATING)
Instrument parameters: FILTERS AT 3150, 2500, 2000, 1150, 700, 410. GRATING CHANGES: 2000, 630
Resolution: 2
Origin: DOW CORNING CORP.
1/CM	TRANSMITTANCE
242	0.8478
251	0.8693
260	0.902
269	0.9112
278	0.9114
287	0.9095
296	0.9082
305	0.9118
314	0.9206
323	0.9261
332	0.9214
341	0.9127
350	0.9024
359	0.9131
368	0.9303
377	0.9305
386	0.9292
395	0.9252
404	0.9468
413	0.9184
422	0.9141
431	0.8996
440	0.8859
449	0.8865
458	0.8775
467	0.8911
476	0.8807
485	0.8445
494	0.7819
503	0.8866
512	0.8873
521	0.89
530	0.889
539	0.8869
548	0.8843
557	0.8796
566	0.8489
575	0.7825
584	0.4896
593	0.8552
602	0.8904
611	0.9001
620	0.907
629	0.9117
638	0.9149
647	0.9185
656	0.9234
665	0.9282
674	0.9307
683	0.9297
692	0.9287
701	0.9233
710	0.8917
719	0.8363
728	0.8638
737	0.8747
746	0.8425
755	0.912
764	0.9149
773	0.9146
782	0.9125
791	0.9101
800	0.9078
809	0.9031
818	0.8974
827	0.8895
836	0.8775
845	0.8593
854	0.8521
863	0.8455
872	0.8377
881	0.8149
890	0.788
899	0.7587
908	0.7063
917	0.5681
926	0.4794
935	0.6322
944	0.729
953	0.6606
962	0.6843
971	0.7513
980	0.7487
989	0.7422
998	0.7224
1007	0.693
1016	0.6491
1025	0.5519
1034	0.5211
1043	0.5637
1052	0.6444
1061	0.675
1070	0.6709
1079	0.7046
1088	0.7092
1097	0.704
1106	0.6943
1115	0.6817
1124	0.6667
1133	0.647
1142	0.6239
1151	0.5947
1160	0.572
1169	0.533
1178	0.4616
1187	0.4095
1196	0.4891
1205	0.578
1214	0.5676
1223	0.537
1232	0.4845
1241	0.4772
1250	0.6102
1259	0.5968
1268	0.5676
1277	0.5299
1286	0.4964
1295	0.4622
1304	0.4258
1313	0.386
1322	0.3461
1331	0.3061
1340	0.2544
1349	0.2736
1358	0.3104
1367	0.2553
1376	0.1677
1385	0.1858
1394	0.1928
1403	0.2824
1412	0.3207
1421	0.3662
1430	0.3576
1439	0.2824
1448	0.1951
1457	0.1309
1466	0.1575
1475	0.268
1484	0.338
1493	0.3847
1502	0.4501
1511	0.5124
1520	0.5554
1529	0.604
1538	0.5965
1547	0.5981
1556	0.6078
1565	0.5866
1574	0.5633
1583	0.5288
1592	0.4899
1601	0.4592
1610	0.43
1619	0.4034
1628	0.3608
1637	0.3149
1646	0.2672
1655	0.2102
1664	0.1637
1673	0.1466
1682	0.1705
1691	0.3282
1700	0.5352
1709	0.5985
1718	0.5833
1727	0.534
1736	0.4846
1745	0.4353
1754	0.3859
1763	0.3454
1772	0.3109
1781	0.2939
1790	0.2951
1799	0.331
1808	0.3973
1817	0.4636
1826	0.5286
1835	0.5903
1844	0.6343
1853	0.6745
1862	0.6886
1871	0.6909
1880	0.6881
1889	0.674
1898	0.646
1907	0.6089
1916	0.5772
1925	0.5481
1934	0.5307
1943	0.5021
1952	0.4787
1961	0.4681
1970	0.4737
1979	0.4822
1988	0.4795
1997	0.4748
2006	0.4715
2015	0.4621
2024	0.4457
2033	0.4302
2042	0.415
2051	0.3996
2060	0.3858
2069	0.3732
2078	0.3621
2087	0.3546
2096	0.3529
2105	0.3522
2114	0.3536
2123	0.3555
2132	0.3581
2141	0.3611
2150	0.3638
2159	0.366
2168	0.3671
2177	0.3654
2186	0.3687
2195	0.3752
2204	0.3816
2213	0.3909
2222	0.4048
2231	0.4209
2240	0.4344
2249	0.4439
2258	0.4464
2267	0.4634
2276	0.4867
2285	0.5051
2294	0.52
2303	0.5328
2312	0.5399
2321	0.5556
2330	0.5711
2339	0.5748
2348	0.5793
2357	0.5789
2366	0.5773
2375	0.5755
2384	0.5729
2393	0.5695
2402	0.5709
2411	0.573
2420	0.5754
2429	0.5799
2438	0.5847
2447	0.5876
2456	0.5926
2465	0.6054
2474	0.6084
2483	0.625
2492	0.6355
2501	0.6401
2510	0.6441
2519	0.6469
2528	0.6467
2537	0.6461
2546	0.6448
2555	0.6439
2564	0.645
2573	0.6474
2582	0.647
2591	0.643
2600	0.6389
2609	0.6366
2618	0.6388
2627	0.6434
2636	0.649
2645	0.654
2654	0.6579
2663	0.6616
2672	0.665
2681	0.6683
2690	0.6696
2699	0.6659
2708	0.6619
2717	0.6554
2726	0.6544
2735	0.6594
2744	0.6644
2753	0.6631
2762	0.6599
2771	0.6533
2780	0.6436
2789	0.6283
2798	0.608
2807	0.587
2816	0.5575
2825	0.5255
2834	0.4379
2843	0.2375
2852	0.0305
2861	0.0429
2870	0.0749
2879	0.0979
2888	0.0994
2897	0.0569
2906	0.0209
2915	0.0084
2924	0.0097
2933	0.0139
2942	0.0228
2951	0.0297
2960	0.0282
2969	0.1169
2978	0.1823
2987	0.4092
2996	0.4977
3005	0.5534
3014	0.5829
3023	0.6153
3032	0.6479
3041	0.6695
3050	0.6852
3059	0.7131
3068	0.722
3077	0.7309
3086	0.7389
3095	0.7407
3104	0.742
3113	0.7436
3122	0.7455
3131	0.7467
3140	0.7524
3149	0.7496
3158	0.753
3167	0.762
3176	0.7657
3185	0.7693
3194	0.7729
3203	0.7761
3212	0.7794
3221	0.782
3230	0.7841
3239	0.7862
3248	0.7883
3257	0.7902
3266	0.7924
3275	0.7943
3284	0.7944
3293	0.794
3302	0.7938
3311	0.794
3320	0.7942
3329	0.7961
3338	0.7983
3347	0.8006
3356	0.804
3365	0.8075
3374	0.8104
3383	0.8124
3392	0.8145
3401	0.8163
3410	0.8177
3419	0.8189
3428	0.8203
3437	0.8211
3446	0.8216
3455	0.8222
3464	0.8227
3473	0.8229
3482	0.8231
3491	0.8233
3500	0.8252
3509	0.826
3518	0.8265
3527	0.8269
3536	0.8273
3545	0.8276
3554	0.8279
3563	0.8282
3572	0.8285
3581	0.8287
3590	0.8289
3599	0.8291
3608	0.8288
3617	0.8281
3626	0.8274
3635	0.8266
3644	0.826
3653	0.8255
3662	0.825
3671	0.8245
3680	0.824
3689	0.8235
3698	0.8228
3707	0.8221
3716	0.8214
3725	0.8203
3734	0.8192
3743	0.8181
3752	0.8169
3761	0.8156
3770	0.8144
3779	0.8135
3788	0.8136
3797	0.8136
3806	0.8141
3815	0.8144
