Infrared Spectrum: Purine, 6-chloro-8-methyl-
Formula: C6 H5 Cl N4
CAS: 92001-52-0
State: SOLID (0.7 mg / 650 mg KBr DISC)
Class: COBLENTZ III
Instrument: PERKIN-ELMER 21 (GRATING)
Instrument parameters: FILTER CHANGE ABOUT 1090 CM^-^1
Sampling: TRANSMISSION
Resolution: 2
Origin: SOUTHERN RESEARCH INSTITUTE
1/CM	TRANSMITTANCE
605	0.8153
614	0.8783
623	0.8618
632	0.757
641	0.7896
650	0.9118
659	0.9423
668	0.8467
677	0.6415
686	0.9187
695	0.9024
704	0.8886
713	0.8711
722	0.853
731	0.8304
740	0.7788
749	0.7072
758	0.3553
767	0.7396
776	0.8092
785	0.7941
794	0.7443
803	0.6362
812	0.7529
821	0.7388
830	0.7235
839	0.7064
848	0.6969
857	0.7002
866	0.6987
875	0.6696
884	0.7377
893	0.7851
902	0.7974
911	0.8001
920	0.7982
929	0.7907
938	0.7737
947	0.7195
956	0.7264
965	0.6169
974	0.6531
983	0.6468
992	0.594
1001	0.3977
1010	0.4728
1019	0.6253
1028	0.6394
1037	0.7627
1046	0.7678
1055	0.783
1064	0.786
1073	0.7842
1082	0.7793
1091	0.7557
1100	0.7729
1109	0.7694
1118	0.7775
1127	0.7768
1136	0.7724
1145	0.7605
1154	0.7371
1163	0.6819
1172	0.6192
1181	0.7393
1190	0.7129
1199	0.6837
1208	0.6252
1217	0.2923
1226	0.2499
1235	0.5513
1244	0.5647
1253	0.6471
1262	0.6535
1271	0.6718
1280	0.7588
1289	0.7649
1298	0.7605
1307	0.7361
1316	0.7055
1325	0.602
1334	0.376
1343	0.2387
1352	0.4271
1361	0.6465
1370	0.6189
1379	0.4949
1388	0.2634
1397	0.4446
1406	0.5358
1415	0.4857
1424	0.4675
1433	0.5116
1442	0.4912
1451	0.512
1460	0.7433
1469	0.7603
1478	0.7553
1487	0.7345
1496	0.7139
1505	0.6894
1514	0.5887
1523	0.5685
1532	0.5978
1541	0.5669
1550	0.5026
1559	0.249
1568	0.1473
1577	0.2501
1586	0.4501
1595	0.5918
1604	0.3902
1613	0.2974
1622	0.4958
1631	0.6461
1640	0.7004
1649	0.7236
1658	0.7452
1667	0.7335
1676	0.737
1685	0.7724
1694	0.7822
1703	0.7971
1712	0.8102
1721	0.8214
1730	0.8235
1739	0.8252
1748	0.826
1757	0.8272
1766	0.8276
1775	0.8277
1784	0.8276
1793	0.8296
1802	0.8352
1811	0.837
1820	0.8363
1829	0.8391
1838	0.8331
1847	0.8292
1856	0.8211
1865	0.8186
1874	0.8298
1883	0.8336
1892	0.8305
1901	0.8218
1910	0.8245
1919	0.8358
1928	0.8366
1937	0.8353
1946	0.8352
1955	0.835
1964	0.8349
1973	0.8348
1982	0.8347
1991	0.8336
2000	0.83
2009	0.8289
2018	0.8284
2027	0.8274
2036	0.8263
2045	0.8263
2054	0.8262
2063	0.8252
2072	0.8244
2081	0.8235
2090	0.8224
2099	0.8213
2108	0.8199
2117	0.8184
2126	0.8146
2135	0.8108
2144	0.8123
2153	0.8148
2162	0.8121
2171	0.8119
2180	0.8106
2189	0.8061
2198	0.8013
2207	0.7988
2216	0.7959
2225	0.7923
2234	0.79
2243	0.7881
2252	0.7866
2261	0.7862
2270	0.7851
2279	0.7821
2288	0.7786
2297	0.7791
2306	0.7745
2315	0.7626
2324	0.7554
2333	0.7499
2342	0.7479
2351	0.749
2360	0.7426
2369	0.7387
2378	0.7361
2387	0.737
2396	0.724
2405	0.7187
2414	0.7145
2423	0.7077
2432	0.7008
2441	0.6926
2450	0.687
2459	0.6812
2468	0.6757
2477	0.673
2486	0.6666
2495	0.6628
2504	0.6588
2513	0.6562
2522	0.6555
2531	0.6527
2540	0.6423
2549	0.6304
2558	0.6261
2567	0.6096
2576	0.5909
2585	0.581
2594	0.576
2603	0.57
2612	0.5661
2621	0.5657
2630	0.5655
2639	0.5664
2648	0.5695
2657	0.563
2666	0.56
2675	0.5479
2684	0.541
2693	0.5308
2702	0.5171
2711	0.5098
2720	0.5032
2729	0.4971
2738	0.4915
2747	0.4899
2756	0.4943
2765	0.5033
2774	0.4994
2783	0.4881
2792	0.4773
2801	0.4758
2810	0.4757
2819	0.4721
2828	0.4675
2837	0.4665
2846	0.4666
2855	0.468
2864	0.4702
2873	0.475
2882	0.471
2891	0.4602
2900	0.4445
2909	0.4382
2918	0.4454
2927	0.4441
2936	0.4425
2945	0.4398
2954	0.4376
2963	0.438
2972	0.4388
2981	0.4396
2990	0.4403
2999	0.4415
3008	0.4437
3017	0.4459
3026	0.4487
3035	0.4515
3044	0.4543
3053	0.4591
3062	0.4658
3071	0.4758
3080	0.4881
3089	0.5008
3098	0.5127
3107	0.5385
3116	0.5482
3125	0.5678
3134	0.5858
3143	0.5925
3152	0.5979
3161	0.6137
3170	0.6282
3179	0.6371
3188	0.6435
3197	0.6587
3206	0.665
3215	0.6818
3224	0.686
3233	0.6898
3242	0.6941
3251	0.6972
3260	0.6987
3269	0.7002
3278	0.7045
3287	0.704
3296	0.6985
3305	0.6933
3314	0.6902
3323	0.6906
3332	0.6844
3341	0.6715
3350	0.6621
3359	0.6567
3368	0.6505
3377	0.6474
3386	0.6452
3395	0.6431
3404	0.643
3413	0.6447
3422	0.6472
3431	0.6506
3440	0.6542
3449	0.6572
3458	0.659
3467	0.6657
3476	0.6759
3485	0.686
3494	0.6942
3503	0.7019
3512	0.7046
3521	0.705
3530	0.7076
3539	0.7168
3548	0.7279
3557	0.732
3566	0.7384
3575	0.75
3584	0.7507
3593	0.7593
3602	0.7674
3611	0.7672
3620	0.7664
3629	0.7713
3638	0.771
3647	0.7694
3656	0.7698
3665	0.771
3674	0.7726
3683	0.7744
3692	0.7751
3701	0.7684
3710	0.7659
3719	0.7657
3728	0.7658
3737	0.766
3746	0.7654
3755	0.7656
3764	0.7645
3773	0.7593
3782	0.7567
3791	0.7591
3800	0.7633
3809	0.7632
3818	0.7639
3827	0.7674
3836	0.765
3845	0.7604
3854	0.7578
3863	0.7589
3872	0.7592
3881	0.7596
3890	0.7606
3899	0.756
3908	0.7511
3917	0.749
3926	0.7488
3935	0.7494
3944	0.7504
3953	0.7513
3962	0.747
3971	0.7459
3980	0.7501
3989	0.7473
3998	0.7313
