Infrared Spectrum: 4-ANILINO-6-METHYL-1,3,3a,7-TETRAZAINDENE
Formula: C12 H11 N5
CAS: 92017-89-5
State: SOLID (KBr PRESSING)
Melting point: 188 C
Class: COBLENTZ
Instrument: Not specified, most likely a prism, grating, or hybrid spectrometer.
Sampling: TRANSMISSION
Resolution: 4
Origin: EASTMAN KODAK COMPANY, RESEARCH LABORATORIES, ROCHESTER, N.Y.
MICROMETERS	TRANSMITTANCE
2.063	0.661
2.09819	0.658
2.13339	0.656
2.16858	0.651
2.20378	0.649
2.23897	0.649
2.27417	0.647
2.30936	0.647
2.34456	0.649
2.37975	0.651
2.41495	0.656
2.45014	0.658
2.48533	0.653
2.52053	0.653
2.55572	0.661
2.59092	0.67
2.62611	0.674
2.66131	0.672
2.6965	0.683
2.7317	0.679
2.76689	0.681
2.80209	0.665
2.83728	0.609
2.87247	0.551
2.90767	0.509
2.94286	0.483
2.97806	0.472
3.01325	0.479
3.04845	0.492
3.08364	0.493
3.11884	0.457
3.15403	0.39
3.18923	0.388
3.22442	0.378
3.25961	0.385
3.29481	0.362
3.33	0.381
3.3652	0.399
3.40039	0.392
3.43559	0.436
3.47078	0.43
3.50598	0.502
3.54117	0.523
3.57637	0.551
3.61156	0.588
3.64676	0.605
3.68195	0.633
3.71714	0.647
3.75234	0.665
3.78753	0.681
3.82273	0.695
3.85792	0.7
3.89312	0.714
3.92831	0.728
3.96351	0.733
3.9987	0.737
4.0339	0.744
4.06909	0.753
4.10428	0.754
4.13948	0.756
4.17467	0.775
4.20987	0.786
4.24506	0.782
4.28026	0.779
4.31545	0.777
4.35065	0.791
4.38584	0.798
4.42104	0.8
4.45623	0.8
4.49142	0.802
4.52662	0.802
4.56181	0.802
4.59701	0.805
4.6322	0.802
4.6674	0.805
4.70259	0.803
4.73779	0.8
4.77298	0.8
4.80818	0.803
4.84337	0.802
4.87856	0.8
4.91376	0.805
4.94895	0.807
4.98415	0.805
5.01934	0.805
5.05454	0.807
5.08973	0.81
5.12493	0.809
5.16012	0.803
5.19532	0.807
5.23051	0.824
5.2657	0.826
5.3009	0.821
5.33609	0.83
5.37129	0.826
5.40648	0.84
5.44168	0.831
5.47687	0.816
5.51207	0.788
5.54726	0.828
5.58246	0.842
5.61765	0.851
5.65284	0.844
5.68804	0.849
5.72323	0.849
5.75843	0.844
5.79362	0.826
5.82882	0.821
5.86401	0.819
5.89921	0.782
5.9344	0.765
5.9696	0.744
6.00479	0.69
6.03998	0.639
6.07518	0.576
6.11037	0.369
6.14557	0.124
6.18076	0.057
6.21596	0.061
6.25115	0.031
6.28635	0.099
6.32154	0.152
6.35674	0.029
6.39193	0.036
6.42713	0.124
6.46232	0.373
6.49751	0.409
6.53271	0.523
6.5679	0.471
6.6031	0.311
6.63829	0.276
6.67349	0.288
6.70868	0.131
6.74388	0.381
6.77907	0.462
6.81427	0.616
6.84946	0.576
6.88465	0.53
6.91985	0.488
6.95504	0.357
6.99024	0.211
7.02543	0.159
7.06063	0.246
7.09582	0.415
7.13102	0.511
7.16621	0.633
7.20141	0.698
7.2366	0.725
7.27179	0.735
7.30699	0.693
7.34218	0.621
7.37738	0.6
7.41257	0.681
7.44777	0.542
7.48296	0.332
7.51816	0.376
7.55335	0.453
7.58855	0.495
7.62374	0.346
7.65893	0.446
7.69413	0.567
7.72932	0.612
7.76452	0.618
7.79971	0.359
7.83491	0.306
7.8701	0.572
7.9053	0.651
7.94049	0.514
7.97569	0.103
8.01088	0.283
8.04607	0.46
8.08127	0.632
8.11646	0.746
8.15166	0.77
8.18685	0.763
8.22205	0.616
8.25724	0.572
8.29244	0.677
8.32763	0.502
8.36283	0.176
8.39802	0.467
8.43321	0.632
8.46841	0.656
8.5036	0.548
8.5388	0.57
8.57399	0.691
8.60919	0.781
8.64438	0.802
8.67958	0.8
8.71477	0.807
8.74997	0.849
8.78516	0.854
8.82035	0.863
8.85555	0.872
8.89074	0.866
8.92594	0.858
8.96113	0.754
8.99633	0.793
9.03152	0.856
9.06672	0.87
9.10191	0.872
9.13711	0.875
9.1723	0.882
9.20749	0.879
9.24269	0.858
9.27788	0.831
9.31308	0.835
9.34827	0.851
9.38347	0.866
9.41866	0.87
9.45386	0.875
9.48905	0.87
9.52425	0.868
9.55944	0.861
9.59464	0.847
9.62983	0.817
9.66502	0.781
9.70022	0.744
9.73541	0.7
9.77061	0.758
9.8058	0.812
9.841	0.802
9.87619	0.789
9.91139	0.789
9.94658	0.795
9.98178	0.788
10.017	0.8
10.0522	0.837
10.0874	0.856
10.1226	0.863
10.1577	0.872
10.1929	0.873
10.2281	0.865
10.2633	0.852
10.2985	0.856
10.3337	0.877
10.3689	0.873
10.4041	0.875
10.4393	0.887
10.4745	0.879
10.5097	0.851
10.5449	0.88
10.5801	0.898
10.6153	0.919
10.6505	0.922
10.6857	0.928
10.7209	0.928
10.7561	0.922
10.7912	0.931
10.8264	0.91
10.8616	0.879
10.8968	0.814
10.932	0.66
10.9672	0.544
11.0024	0.781
11.0376	0.868
11.0728	0.898
11.108	0.921
11.1432	0.933
11.1784	0.947
11.2136	0.954
11.2488	0.956
11.284	0.959
11.3192	0.964
11.3544	0.963
11.3896	0.966
11.4248	0.966
11.4599	0.961
11.4951	0.963
11.5303	0.963
11.5655	0.957
11.6007	0.957
11.6359	0.954
11.6711	0.942
11.7063	0.922
11.7415	0.905
11.7767	0.891
11.8119	0.87
11.8471	0.845
11.8823	0.856
11.9175	0.884
11.9527	0.907
11.9879	0.912
12.0231	0.907
12.0583	0.905
12.0934	0.894
12.1286	0.887
12.1638	0.877
12.199	0.856
12.2342	0.809
12.2694	0.735
12.3046	0.712
12.3398	0.66
12.375	0.572
12.4102	0.644
12.4454	0.742
12.4806	0.779
12.5158	0.805
12.551	0.823
12.5862	0.833
12.6214	0.845
12.6566	0.844
12.6918	0.838
12.727	0.824
12.7621	0.796
12.7973	0.775
12.8325	0.721
12.8677	0.654
12.9029	0.499
12.9381	0.336
12.9733	0.271
13.0085	0.366
13.0437	0.562
13.0789	0.665
13.1141	0.702
13.1493	0.704
13.1845	0.702
13.2197	0.704
13.2549	0.691
13.2901	0.67
13.3253	0.653
13.3605	0.612
13.3956	0.56
13.4308	0.502
13.466	0.436
13.5012	0.399
13.5364	0.35
13.5716	0.308
13.6068	0.259
13.642	0.239
13.6772	0.299
13.7124	0.467
13.7476	0.595
13.7828	0.686
13.818	0.725
13.8532	0.737
13.8884	0.747
13.9236	0.747
13.9588	0.742
13.994	0.732
14.0291	0.712
14.0643	0.693
14.0995	0.672
14.1347	0.649
14.1699	0.619
14.2051	0.59
14.2403	0.535
14.2755	0.467
14.3107	0.385
14.3459	0.316
14.3811	0.239
14.4163	0.269
14.4515	0.392
14.4867	0.471
14.5219	0.514
14.5571	0.535
14.5923	0.539
14.6275	0.53
14.6627	0.497
14.6978	0.46
14.733	0.469
14.7682	0.537
14.8034	0.609
14.8386	0.646
14.8738	0.66
14.909	0.658
14.9442	0.66
14.9794	0.663
15.0146	0.684
15.0498	0.691
15.085	0.691
15.1202	0.686
15.1554	0.679
15.1906	0.67
15.2258	0.661
15.261	0.663
15.2962	0.651
15.3313	0.653
15.3665	0.649
15.4017	0.639
15.4369	0.633
15.4721	0.63
15.5073	0.626
15.5425	0.625
15.5777	0.621
15.6129	0.621
15.6481	0.611
15.6833	0.6
15.7185	0.581
15.7537	0.577
15.7889	0.579
15.8241	0.593
15.8593	0.602
15.8945	0.609
15.9297	0.618
15.9648	0.614
16	0.605
