Infrared Spectrum: Alpha-BROMO Alpha-CHLORO-PROPIONIC ACID
Formula: C3 H4 Br Cl O2
CAS: 92018-32-1
State: SOLUTION (CCl4 FOR 5000-1330, CS2 FOR 1330-625 CM^-^1)
Class: COBLENTZ
Instrument: Not specified, most likely a prism, grating, or hybrid spectrometer.
Sampling: TRANSMISSION
Path length: 0.0126 CM, 0.0121 CM
Resolution: 4
Origin: DOW CHEMICAL COMPANY
MICROMETERS	TRANSMITTANCE
2.014	0.904
2.05513	0.902
2.09627	0.902
2.1374	0.902
2.17854	0.901
2.21967	0.897
2.26081	0.901
2.30194	0.902
2.34307	0.902
2.38421	0.901
2.42534	0.901
2.46648	0.902
2.50761	0.908
2.54875	0.902
2.58988	0.908
2.63101	0.902
2.67215	0.892
2.71328	0.879
2.75442	0.875
2.79555	0.85
2.83669	0.804
2.87782	0.802
2.91896	0.758
2.96009	0.706
3.00122	0.618
3.04236	0.529
3.08349	0.436
3.12463	0.354
3.16576	0.282
3.2069	0.241
3.24803	0.231
3.28916	0.223
3.3303	0.212
3.37143	0.255
3.41257	0.24
3.4537	0.238
3.49484	0.286
3.53597	0.335
3.5771	0.39
3.61824	0.453
3.65937	0.485
3.70051	0.477
3.74164	0.419
3.78278	0.449
3.82391	0.516
3.86504	0.562
3.90618	0.543
3.94731	0.5
3.98845	0.555
4.02958	0.672
4.07072	0.722
4.11185	0.749
4.15298	0.775
4.19412	0.814
4.23525	0.833
4.27639	0.822
4.31752	0.798
4.35866	0.805
4.39979	0.817
4.44093	0.826
4.48206	0.831
4.52319	0.836
4.56433	0.836
4.60546	0.833
4.6466	0.817
4.68773	0.816
4.72887	0.824
4.77	0.839
4.81113	0.841
4.85227	0.846
4.8934	0.85
4.93454	0.85
4.97567	0.839
5.01681	0.833
5.05794	0.829
5.09907	0.822
5.14021	0.822
5.18134	0.826
5.22248	0.827
5.26361	0.826
5.30475	0.817
5.34588	0.812
5.38701	0.807
5.42815	0.793
5.46928	0.783
5.51042	0.761
5.55155	0.727
5.59269	0.643
5.63382	0.504
5.67495	0.347
5.71609	0.166
5.75722	0.045
5.79836	0.035
5.83949	0.166
5.88063	0.373
5.92176	0.575
5.9629	0.638
6.00403	0.672
6.04516	0.71
6.0863	0.739
6.12743	0.742
6.16857	0.72
6.2097	0.674
6.25084	0.599
6.29197	0.562
6.3331	0.536
6.37424	0.49
6.41537	0.427
6.45651	0.434
6.49764	0.536
6.53878	0.591
6.57991	0.64
6.62104	0.705
6.66218	0.742
6.70331	0.763
6.74445	0.756
6.78558	0.735
6.82672	0.616
6.86785	0.35
6.90898	0.194
6.95012	0.514
6.99125	0.471
7.03239	0.316
7.07352	0.284
7.11466	0.352
7.15579	0.565
7.19692	0.509
7.23806	0.589
7.27919	0.73
7.32033	0.766
7.36146	0.773
7.4026	0.776
7.44373	0.766
7.48487	0.749
7.526	0.729
7.56713	0.7
7.60827	0.655
7.6494	0.603
7.69054	0.514
7.73167	0.378
7.77281	0.209
7.81394	0.114
7.85507	0.088
7.89621	0.131
7.93734	0.252
7.97848	0.383
8.01961	0.499
8.06075	0.567
8.10188	0.614
8.14301	0.643
8.18415	0.662
8.22528	0.683
8.26642	0.691
8.30755	0.7
8.34869	0.705
8.38982	0.705
8.43095	0.683
8.47209	0.674
8.51322	0.703
8.55436	0.73
8.59549	0.746
8.63663	0.746
8.67776	0.734
8.71889	0.706
8.76003	0.63
8.80116	0.531
8.8423	0.339
8.88343	0.248
8.92457	0.419
8.9657	0.558
9.00684	0.62
9.04797	0.637
9.0891	0.625
9.13024	0.56
9.17137	0.456
9.21251	0.252
9.25364	0.112
9.29478	0.102
9.33591	0.105
9.37704	0.141
9.41818	0.325
9.45931	0.456
9.50045	0.62
9.54158	0.691
9.58272	0.734
9.62385	0.761
9.66498	0.773
9.70612	0.785
9.74725	0.793
9.78839	0.795
9.82952	0.793
9.87066	0.79
9.91179	0.787
9.95292	0.783
9.99406	0.776
10.0352	0.764
10.0763	0.752
10.1175	0.744
10.1586	0.742
10.1997	0.741
10.2409	0.737
10.282	0.73
10.3231	0.722
10.3643	0.712
10.4054	0.698
10.4465	0.683
10.4877	0.664
10.5288	0.64
10.5699	0.626
10.6111	0.601
10.6522	0.579
10.6933	0.551
10.7345	0.529
10.7756	0.497
10.8167	0.466
10.8579	0.446
10.899	0.425
10.9401	0.402
10.9813	0.395
11.0224	0.383
11.0636	0.378
11.1047	0.378
11.1458	0.379
11.187	0.386
11.2281	0.396
11.2692	0.402
11.3104	0.412
11.3515	0.413
11.3926	0.413
11.4338	0.398
11.4749	0.374
11.516	0.362
11.5572	0.378
11.5983	0.405
11.6394	0.427
11.6806	0.444
11.7217	0.465
11.7628	0.499
11.804	0.543
11.8451	0.568
11.8862	0.596
11.9274	0.625
11.9685	0.645
12.0096	0.659
12.0508	0.666
12.0919	0.678
12.133	0.684
12.1742	0.693
12.2153	0.696
12.2564	0.698
12.2976	0.7
12.3387	0.701
12.3798	0.701
12.421	0.693
12.4621	0.678
12.5033	0.65
12.5444	0.601
12.5855	0.543
12.6267	0.442
12.6678	0.374
12.7089	0.316
12.7501	0.308
12.7912	0.335
12.8323	0.379
12.8735	0.432
12.9146	0.477
12.9557	0.517
12.9969	0.55
13.038	0.577
13.0791	0.592
13.1203	0.604
13.1614	0.616
13.2025	0.625
13.2437	0.63
13.2848	0.633
13.3259	0.638
13.3671	0.64
13.4082	0.64
13.4493	0.64
13.4905	0.642
13.5316	0.642
13.5727	0.637
13.6139	0.63
13.655	0.621
13.6961	0.611
13.7373	0.603
13.7784	0.591
13.8196	0.572
13.8607	0.56
13.9018	0.54
13.943	0.517
13.9841	0.495
14.0252	0.454
14.0664	0.425
14.1075	0.393
14.1486	0.364
14.1898	0.342
14.2309	0.327
14.272	0.321
14.3132	0.325
14.3543	0.333
14.3954	0.345
14.4366	0.354
14.4777	0.364
14.5188	0.381
14.56	0.395
14.6011	0.402
14.6422	0.407
14.6834	0.412
14.7245	0.413
14.7656	0.413
14.8068	0.412
14.8479	0.407
14.889	0.407
14.9302	0.413
14.9713	0.415
15.0124	0.415
15.0536	0.413
15.0947	0.408
15.1358	0.402
15.177	0.395
15.2181	0.385
15.2593	0.374
15.3004	0.366
15.3415	0.361
15.3827	0.349
15.4238	0.335
15.4649	0.332
15.5061	0.323
15.5472	0.316
15.5883	0.299
15.6295	0.286
15.6706	0.277
15.7117	0.269
15.7529	0.262
15.794	0.253
15.8351	0.248
