Infrared Spectrum: O-NITRO CARBANILIC ACID, n-HEXYL ESTER
Formula: C13 H18 N2 O4
CAS: 92034-23-6
State: SOLID (2.2 mg / 100 mg KBr)
Class: COBLENTZ
Instrument: Not specified, most likely a grating spectrometer.
Sampling: TRANSMISSION
Resolution: 4
Origin: CITRUS EXPERIMENT STATION, UNIVERSITY OF FLORIDA (G. EDWARDS)
MICROMETERS	TRANSMITTANCE
2.033	0.426
2.06615	0.426
2.09929	0.431
2.13244	0.432
2.16558	0.432
2.19873	0.432
2.23187	0.432
2.26502	0.434
2.29816	0.438
2.33131	0.44
2.36445	0.443
2.3976	0.443
2.43074	0.443
2.46389	0.444
2.49703	0.451
2.53018	0.45
2.56333	0.451
2.59647	0.451
2.62962	0.45
2.66276	0.451
2.69591	0.45
2.72905	0.455
2.7622	0.455
2.79534	0.451
2.82849	0.448
2.86163	0.446
2.89478	0.439
2.92792	0.412
2.96107	0.379
2.99421	0.442
3.02736	0.462
3.06051	0.468
3.09365	0.472
3.1268	0.478
3.15994	0.478
3.19309	0.468
3.22623	0.479
3.25938	0.483
3.29252	0.479
3.32567	0.448
3.35881	0.348
3.39196	0.339
3.4251	0.43
3.45825	0.423
3.49139	0.458
3.52454	0.499
3.55769	0.511
3.59083	0.512
3.62398	0.513
3.65712	0.515
3.69027	0.516
3.72341	0.519
3.75656	0.521
3.7897	0.521
3.82285	0.524
3.85599	0.528
3.88914	0.531
3.92228	0.531
3.95543	0.536
3.98857	0.537
4.02172	0.537
4.05487	0.54
4.08801	0.54
4.12116	0.54
4.1543	0.541
4.18745	0.553
4.22059	0.556
4.25374	0.559
4.28688	0.56
4.32003	0.56
4.35317	0.56
4.38632	0.56
4.41946	0.561
4.45261	0.563
4.48575	0.565
4.5189	0.568
4.55205	0.569
4.58519	0.572
4.61834	0.572
4.65148	0.572
4.68463	0.572
4.71777	0.575
4.75092	0.58
4.78406	0.584
4.81721	0.584
4.85035	0.584
4.8835	0.585
4.91664	0.589
4.94979	0.593
4.98293	0.592
5.01608	0.592
5.04923	0.592
5.08237	0.592
5.11552	0.593
5.14866	0.596
5.18181	0.6
5.21495	0.6
5.2481	0.601
5.28124	0.603
5.31439	0.604
5.34753	0.607
5.38068	0.608
5.41382	0.605
5.44697	0.599
5.48011	0.597
5.51326	0.597
5.54641	0.597
5.57955	0.596
5.6127	0.557
5.64584	0.525
5.67899	0.335
5.71213	0.25
5.74528	0.434
5.77842	0.525
5.81157	0.596
5.84471	0.599
5.87786	0.612
5.911	0.611
5.94415	0.607
5.97729	0.603
6.01044	0.601
6.04359	0.597
6.07673	0.593
6.10988	0.576
6.14302	0.531
6.17617	0.351
6.20931	0.458
6.24246	0.535
6.2756	0.379
6.30875	0.312
6.34189	0.577
6.37504	0.584
6.40818	0.552
6.44133	0.499
6.47447	0.492
6.50762	0.466
6.54077	0.264
6.57391	0.21
6.60706	0.185
6.6402	0.245
6.67335	0.426
6.70649	0.541
6.73964	0.552
6.77278	0.482
6.80593	0.435
6.83907	0.387
6.87222	0.42
6.90536	0.41
6.93851	0.332
6.97165	0.392
7.0048	0.472
7.03795	0.544
7.07109	0.572
7.10424	0.591
7.13738	0.591
7.17053	0.587
7.20367	0.557
7.23682	0.575
7.26996	0.596
7.30311	0.592
7.33625	0.556
7.3694	0.49
7.40254	0.323
7.43569	0.231
7.46883	0.396
7.50198	0.519
7.53513	0.525
7.56827	0.468
7.60142	0.517
7.63456	0.527
7.66771	0.528
7.70085	0.513
7.734	0.484
7.76714	0.442
7.80029	0.402
7.83343	0.419
7.86658	0.464
7.89972	0.501
7.93287	0.527
7.96601	0.486
7.99916	0.335
8.03231	0.229
8.06545	0.283
8.0986	0.407
8.13174	0.511
8.16489	0.544
8.19803	0.52
8.23118	0.455
8.26432	0.347
8.29747	0.275
8.33061	0.223
8.36376	0.284
8.3969	0.442
8.43005	0.549
8.46319	0.595
8.49634	0.629
8.52949	0.611
8.56263	0.561
8.59578	0.535
8.62892	0.563
8.66207	0.584
8.69521	0.549
8.72836	0.589
8.7615	0.652
8.79465	0.671
8.82779	0.676
8.86094	0.681
8.89408	0.681
8.92723	0.681
8.96037	0.68
8.99352	0.68
9.02667	0.68
9.05981	0.68
9.09296	0.671
9.1261	0.647
9.15925	0.585
9.19239	0.512
9.22554	0.519
9.25868	0.573
9.29183	0.611
9.32497	0.6
9.35812	0.569
9.39126	0.551
9.42441	0.539
9.45755	0.549
9.4907	0.573
9.52385	0.592
9.55699	0.588
9.59014	0.557
9.62328	0.585
9.65643	0.615
9.68957	0.625
9.72272	0.644
9.75586	0.669
9.78901	0.691
9.82215	0.704
9.8553	0.716
9.88844	0.719
9.92159	0.721
9.95473	0.723
9.98788	0.723
10.021	0.723
10.0542	0.721
10.0873	0.721
10.1205	0.721
10.1536	0.72
10.1868	0.724
10.2199	0.725
10.253	0.725
10.2862	0.727
10.3193	0.729
10.3525	0.736
10.3856	0.731
10.4188	0.725
10.4519	0.724
10.4851	0.727
10.5182	0.732
10.5514	0.736
10.5845	0.741
10.6176	0.745
10.6508	0.75
10.6839	0.752
10.7171	0.752
10.7502	0.745
10.7834	0.744
10.8165	0.743
10.8497	0.745
10.8828	0.75
10.9159	0.761
10.9491	0.76
10.9822	0.766
11.0154	0.768
11.0485	0.768
11.0817	0.769
11.1148	0.768
11.148	0.768
11.1811	0.766
11.2143	0.765
11.2474	0.769
11.2805	0.772
11.3137	0.77
11.3468	0.773
11.38	0.776
11.4131	0.769
11.4463	0.762
11.4794	0.745
11.5126	0.715
11.5457	0.667
11.5789	0.645
11.612	0.677
11.6451	0.72
11.6783	0.74
11.7114	0.745
11.7446	0.745
11.7777	0.745
11.8109	0.745
11.844	0.745
11.8772	0.744
11.9103	0.741
11.9435	0.741
11.9766	0.745
12.0097	0.752
12.0429	0.76
12.076	0.766
12.1092	0.769
12.1423	0.77
12.1755	0.77
12.2086	0.77
12.2418	0.769
12.2749	0.772
12.3081	0.773
12.3412	0.776
12.3743	0.777
12.4075	0.777
12.4406	0.777
12.4738	0.777
12.5069	0.77
12.5401	0.761
12.5732	0.756
12.6064	0.747
12.6395	0.744
12.6727	0.72
12.7058	0.701
12.7389	0.667
12.7721	0.636
12.8052	0.637
12.8384	0.663
12.8715	0.712
12.9047	0.723
12.9378	0.713
12.971	0.699
13.0041	0.669
13.0373	0.656
13.0704	0.661
13.1035	0.68
13.1367	0.701
13.1698	0.72
13.203	0.732
13.2361	0.735
13.2693	0.731
13.3024	0.724
13.3356	0.681
13.3687	0.653
13.4018	0.577
13.435	0.519
13.4681	0.484
13.5013	0.475
13.5344	0.498
13.5676	0.556
13.6007	0.593
13.6339	0.652
13.667	0.669
13.7002	0.692
13.7333	0.697
13.7664	0.701
13.7996	0.709
13.8327	0.712
13.8659	0.717
13.899	0.721
13.9322	0.732
13.9653	0.737
13.9985	0.737
14.0316	0.739
14.0648	0.74
14.0979	0.74
14.131	0.74
14.1642	0.737
14.1973	0.733
14.2305	0.733
14.2636	0.731
14.2968	0.721
14.3299	0.707
14.3631	0.7
14.3962	0.691
14.4294	0.669
14.4625	0.648
14.4956	0.641
14.5288	0.628
14.5619	0.633
14.5951	0.64
14.6282	0.641
14.6614	0.632
14.6945	0.628
14.7277	0.628
14.7608	0.621
14.794	0.611
14.8271	0.609
14.8602	0.605
14.8934	0.621
14.9265	0.612
14.9597	0.611
14.9928	0.636
15.026	0.651
