Infrared Spectrum: GLUTARIMIDE, 3-[(3-METHYL-2-OXOCYCLOHEXYL)CARBONYL]-
Formula: C13 H17 N O4
CAS: 92042-21-2
State: SOLID (1 mg / 650 mg KBr DISC)
Class: COBLENTZ III
Instrument: PERKIN-ELMER 21 (GRATING)
Instrument parameters: NaCl PRISM, FILTER CHANGE ABOUT 980 CM^-^1
Sampling: TRANSMISSION
Resolution: 4
Origin: SOUTHERN RES. INSTITUTE
1/CM	TRANSMITTANCE
640.465	0.763
649.758	0.788
659.052	0.792
668.345	0.795
677.638	0.814
686.932	0.814
696.225	0.796
705.518	0.793
714.812	0.788
724.105	0.778
733.398	0.767
742.691	0.763
751.985	0.754
761.278	0.734
770.571	0.718
779.865	0.719
789.158	0.696
798.451	0.665
807.745	0.601
817.038	0.594
826.331	0.561
835.625	0.5
844.918	0.413
854.211	0.4
863.505	0.472
872.798	0.585
882.091	0.641
891.385	0.648
900.678	0.629
909.971	0.586
919.264	0.528
928.558	0.503
937.851	0.533
947.144	0.59
956.438	0.646
965.731	0.596
975.024	0.68
984.318	0.699
993.611	0.744
1002.9	0.722
1012.2	0.7
1021.49	0.684
1030.78	0.655
1040.08	0.702
1049.37	0.674
1058.66	0.682
1067.96	0.654
1077.25	0.573
1086.54	0.631
1095.84	0.613
1105.13	0.604
1114.42	0.569
1123.72	0.515
1133.01	0.472
1142.3	0.346
1151.6	0.205
1160.89	0.247
1170.18	0.385
1179.48	0.51
1188.77	0.501
1198.06	0.445
1207.36	0.353
1216.65	0.404
1225.94	0.431
1235.24	0.381
1244.53	0.384
1253.82	0.191
1263.12	0.169
1272.41	0.279
1281.7	0.398
1291	0.464
1300.29	0.525
1309.58	0.502
1318.88	0.478
1328.17	0.403
1337.46	0.298
1346.76	0.353
1356.05	0.43
1365.34	0.405
1374.64	0.402
1383.93	0.448
1393.22	0.49
1402.52	0.403
1411.81	0.439
1421.1	0.505
1430.4	0.515
1439.69	0.531
1448.98	0.537
1458.28	0.541
1467.57	0.602
1476.86	0.657
1486.16	0.655
1495.45	0.648
1504.74	0.633
1514.04	0.614
1523.33	0.567
1532.62	0.531
1541.92	0.471
1551.21	0.409
1560.5	0.343
1569.8	0.283
1579.09	0.242
1588.38	0.228
1597.68	0.24
1606.97	0.282
1616.26	0.333
1625.56	0.358
1634.85	0.362
1644.14	0.355
1653.44	0.314
1662.73	0.255
1672.02	0.228
1681.32	0.147
1690.61	0.091
1699.9	0.148
1709.2	0.227
1718.49	0.234
1727.78	0.183
1737.08	0.241
1746.37	0.379
1755.66	0.465
1764.96	0.528
1774.25	0.57
1783.54	0.606
1792.84	0.63
1802.13	0.66
1811.42	0.685
1820.72	0.689
1830.01	0.692
1839.3	0.712
1848.6	0.758
1857.89	0.768
1867.18	0.778
1876.48	0.782
1885.77	0.805
1895.06	0.811
1904.36	0.816
1913.65	0.82
1922.94	0.825
1932.24	0.833
1941.53	0.837
1950.82	0.849
1960.12	0.851
1969.41	0.853
1978.7	0.854
1988	0.856
1997.29	0.859
2006.58	0.861
2015.88	0.863
2025.17	0.864
2034.46	0.866
2043.76	0.866
2053.05	0.867
2062.34	0.867
2071.64	0.866
2080.93	0.864
2090.22	0.863
2099.52	0.862
2108.81	0.863
2118.1	0.862
2127.4	0.864
2136.69	0.865
2145.98	0.867
2155.28	0.867
2164.57	0.868
2173.86	0.868
2183.16	0.868
2192.45	0.867
2201.74	0.867
2211.04	0.866
2220.33	0.864
2229.62	0.864
2238.92	0.863
2248.21	0.861
2257.5	0.86
2266.8	0.858
2276.09	0.856
2285.38	0.854
2294.68	0.85
2303.97	0.846
2313.26	0.841
2322.56	0.837
2331.85	0.83
2341.14	0.829
2350.44	0.829
2359.73	0.826
2369.02	0.828
2378.32	0.83
2387.61	0.828
2396.9	0.827
2406.2	0.825
2415.49	0.824
2424.78	0.823
2434.08	0.822
2443.37	0.821
2452.66	0.818
2461.96	0.816
2471.25	0.815
2480.54	0.813
2489.83	0.813
2499.13	0.813
2508.42	0.812
2517.71	0.807
2527.01	0.803
2536.3	0.8
2545.59	0.8
2554.89	0.795
2564.18	0.792
2573.47	0.79
2582.77	0.79
2592.06	0.787
2601.35	0.785
2610.65	0.783
2619.94	0.782
2629.23	0.782
2638.53	0.781
2647.82	0.78
2657.11	0.78
2666.41	0.779
2675.7	0.778
2684.99	0.778
2694.29	0.778
2703.58	0.776
2712.87	0.776
2722.17	0.776
2731.46	0.775
2740.75	0.774
2750.05	0.772
2759.34	0.768
2768.63	0.764
2777.93	0.754
2787.22	0.745
2796.51	0.732
2805.81	0.702
2815.1	0.686
2824.39	0.661
2833.69	0.598
2842.98	0.548
2852.27	0.533
2861.57	0.534
2870.86	0.542
2880.15	0.55
2889.45	0.547
2898.74	0.522
2908.03	0.481
2917.33	0.442
2926.62	0.464
2935.91	0.465
2945.21	0.465
2954.5	0.464
2963.79	0.539
2973.09	0.561
2982.38	0.565
2991.67	0.59
3000.97	0.658
3010.26	0.674
3019.55	0.67
3028.85	0.663
3038.14	0.652
3047.43	0.63
3056.73	0.585
3066.02	0.552
3075.31	0.508
3084.61	0.467
3093.9	0.467
3103.19	0.483
3112.49	0.497
3121.78	0.496
3131.07	0.491
3140.37	0.488
3149.66	0.485
3158.95	0.463
3168.25	0.446
3177.54	0.429
3186.83	0.396
3196.13	0.381
3205.42	0.379
3214.71	0.401
3224.01	0.438
3233.3	0.481
3242.59	0.527
3251.89	0.561
3261.18	0.622
3270.47	0.65
3279.77	0.687
3289.06	0.713
3298.35	0.725
3307.65	0.736
3316.94	0.736
3326.23	0.734
3335.53	0.729
3344.82	0.719
3354.11	0.716
3363.41	0.71
3372.7	0.703
3381.99	0.698
3391.29	0.696
3400.58	0.693
3409.87	0.69
3419.17	0.69
3428.46	0.693
3437.75	0.695
3447.05	0.704
3456.34	0.712
3465.63	0.724
3474.93	0.732
3484.22	0.736
3493.51	0.739
3502.81	0.744
3512.1	0.749
3521.39	0.754
3530.69	0.762
3539.98	0.768
3549.27	0.772
3558.57	0.778
3567.86	0.787
3577.15	0.795
3586.45	0.805
3595.74	0.813
3605.03	0.828
3614.33	0.836
3623.62	0.845
3632.91	0.851
3642.21	0.854
3651.5	0.856
3660.79	0.859
3670.09	0.859
3679.38	0.861
3688.67	0.863
3697.97	0.864
3707.26	0.865
3716.55	0.864
3725.85	0.864
3735.14	0.864
3744.43	0.864
3753.73	0.865
3763.02	0.866
3772.31	0.864
3781.61	0.861
3790.9	0.858
3800.19	0.854
3809.49	0.852
3818.78	0.851
3828.07	0.851
3837.37	0.85
3846.66	0.849
3855.95	0.849
3865.25	0.849
3874.54	0.85
3883.83	0.848
3893.13	0.847
3902.42	0.846
3911.71	0.847
3921.01	0.847
3930.3	0.847
3939.59	0.847
3948.89	0.847
3958.18	0.847
3967.47	0.847
3976.77	0.847
3986.06	0.847
3995.35	0.847
