Infrared Spectrum: N-CYCLOPROPYL-3,4,5-TRI-METHOXYBENZAMIDE
Formula: C13 H17 N O4
CAS: 92042-04-1
State: SOLUTION (7% IN CHCl3)
Class: COBLENTZ
Instrument: PERKIN-ELMER
Sampling: TRANSMISSION
Path length: 0.010 CM CELL
Resolution: 4
Origin: ABBOTT LABORATORIES - WASHBURN
MICROMETERS	TRANSMITTANCE
2.037	0.908
2.07668	0.913
2.11637	0.913
2.15605	0.918
2.19574	0.918
2.23542	0.923
2.2751	0.917
2.31479	0.9071
2.35447	0.9218
2.39416	0.93
2.43384	0.9219
2.47353	0.923
2.51321	0.928
2.55289	0.932
2.59258	0.933
2.63226	0.933
2.67195	0.9381
2.71163	0.9317
2.75131	0.9323
2.791	0.9325
2.83068	0.8854
2.87037	0.8556
2.91005	0.706
2.94974	0.7688
2.98942	0.7461
3.0291	0.7541
3.06879	0.819
3.10847	0.8652
3.14816	0.89
3.18784	0.89
3.22752	0.855
3.26721	0.8143
3.30689	0.7647
3.34658	0.4759
3.38626	0.539
3.42595	0.6748
3.46563	0.7809
3.50531	0.7808
3.545	0.8118
3.58468	0.9031
3.62437	0.922
3.66405	0.925
3.70373	0.928
3.74342	0.932
3.7831	0.932
3.82279	0.928
3.86247	0.928
3.90215	0.933
3.94184	0.93
3.98152	0.927
4.02121	0.908
4.06089	0.8969
4.10058	0.889
4.14026	0.8901
4.17994	0.9236
4.21963	0.9351
4.25931	0.928
4.299	0.93
4.33868	0.93
4.37836	0.9221
4.41805	0.915
4.45773	0.907
4.49742	0.908
4.5371	0.907
4.57679	0.903
4.61647	0.8989
4.65615	0.892
4.69584	0.892
4.73552	0.895
4.77521	0.9
4.81489	0.895
4.85457	0.892
4.89426	0.894
4.93394	0.89
4.97363	0.89
5.01331	0.882
5.053	0.877
5.09268	0.875
5.13236	0.87
5.17205	0.8884
5.21173	0.8912
5.25142	0.889
5.2911	0.8912
5.33078	0.892
5.37047	0.8907
5.41015	0.8865
5.44984	0.889
5.48952	0.89
5.52921	0.8867
5.56889	0.8739
5.60857	0.8342
5.64826	0.8358
5.68794	0.847
5.72763	0.8492
5.76731	0.847
5.80699	0.8283
5.84668	0.8113
5.88636	0.796
5.92605	0.7413
5.96573	0.5143
6.00541	0.2367
6.0451	0.137
6.08478	0.1804
6.12447	0.4153
6.16415	0.5833
6.20384	0.6045
6.24352	0.4256
6.2832	0.1453
6.32289	0.112
6.36257	0.3732
6.40226	0.5484
6.44194	0.5727
6.48162	0.5239
6.52131	0.4262
6.56099	0.3596
6.60068	0.3179
6.64036	0.2919
6.68005	0.1493
6.71973	0.0483
6.75941	0.0416
6.7991	0.1884
6.83878	0.1905
6.87847	0.1578
6.91815	0.2763
6.95783	0.4983
6.99752	0.4174
7.0372	0.4536
7.07689	0.3463
7.11657	0.2498
7.15626	0.5538
7.19594	0.6641
7.23562	0.7154
7.27531	0.7107
7.31499	0.6077
7.35468	0.4472
7.39436	0.577
7.43404	0.6036
7.47373	0.4668
7.51341	0.2121
7.5531	0.0671
7.59278	0.2185
7.63246	0.4691
7.67215	0.5934
7.71183	0.6373
7.75152	0.6567
7.7912	0.676
7.83089	0.6824
7.87057	0.6656
7.91025	0.6351
7.94994	0.6065
7.98962	0.5807
8.02931	0.4636
8.06899	0.2918
8.10867	0.1875
8.14836	0.152
8.18804	0.1596
8.22773	0.1666
8.26741	0.1742
8.3071	0.1882
8.34678	0.2437
8.38646	0.4688
8.42615	0.5632
8.46583	0.4918
8.50552	0.4803
8.5452	0.5203
8.58488	0.4782
8.62457	0.5258
8.66425	0.6166
8.70394	0.632
8.74362	0.5471
8.78331	0.4118
8.82299	0.1735
8.86267	0.0375
8.90236	0.0086
8.94204	0.0352
8.98173	0.1706
9.02141	0.27
9.06109	0.3793
9.10078	0.4382
9.14046	0.4943
9.18015	0.5847
9.21983	0.6662
9.25951	0.6925
9.2992	0.723
9.33888	0.735
9.37857	0.741
9.41825	0.7509
9.45794	0.7657
9.49762	0.7826
9.5373	0.7689
9.57699	0.7399
9.61667	0.721
9.65636	0.7205
9.69604	0.711
9.73572	0.6747
9.77541	0.5999
9.81509	0.5868
9.85478	0.6391
9.89446	0.6326
9.93415	0.5439
9.97383	0.4049
10.0135	0.3196
10.0532	0.3156
10.0929	0.4132
10.1326	0.5257
10.1723	0.6152
10.2119	0.6841
10.2516	0.7343
10.2913	0.7661
10.331	0.7883
10.3707	0.801
10.4104	0.8069
10.45	0.8145
10.4897	0.819
10.5294	0.821
10.5691	0.821
10.6088	0.821
10.6485	0.819
10.6881	0.816
10.7278	0.8063
10.7675	0.7997
10.8072	0.7795
10.8469	0.7499
10.8866	0.7193
10.9262	0.6707
10.9659	0.6711
11.0056	0.7102
11.0453	0.7599
11.085	0.7863
11.1247	0.7962
11.1644	0.809
11.204	0.811
11.2437	0.819
11.2834	0.8188
11.3231	0.8093
11.3628	0.8185
11.4025	0.8126
11.4421	0.8028
11.4818	0.7764
11.5215	0.7221
11.5612	0.6637
11.6009	0.6325
11.6406	0.6066
11.6802	0.6042
11.7199	0.6331
11.7596	0.6709
11.7993	0.6952
11.839	0.708
11.8787	0.7082
11.9184	0.706
11.958	0.7247
11.9977	0.7494
12.0374	0.763
12.0771	0.773
12.1168	0.776
12.1565	0.776
12.1961	0.776
12.2358	0.7767
12.2755	0.7933
12.3152	0.8123
12.3549	0.821
12.3946	0.8311
12.4342	0.8459
12.4739	0.8547
12.5136	0.869
12.5533	0.8735
12.593	0.884
12.6327	0.889
12.6724	0.8933
12.712	0.8996
12.7517	0.905
12.7914	0.903
12.8311	0.9037
12.8708	0.902
12.9105	0.9028
12.9501	0.9021
12.9898	0.902
13.0295	0.902
13.0692	0.8991
13.1089	0.897
13.1486	0.897
13.1882	0.899
13.2279	0.899
13.2676	0.895
13.3073	0.8982
13.347	0.9
13.3867	0.9
13.4264	0.899
13.466	0.899
13.5057	0.897
13.5454	0.897
13.5851	0.897
13.6248	0.902
13.6645	0.902
13.7041	0.9029
13.7438	0.902
13.7835	0.9
13.8232	0.9
13.8629	0.8907
13.9026	0.885
13.9422	0.885
13.9819	0.8759
14.0216	0.8595
14.0613	0.8582
14.101	0.8513
14.1407	0.844
14.1803	0.844
14.22	0.842
14.2597	0.841
14.2994	0.8391
14.3391	0.8325
14.3788	0.829
14.4185	0.8213
14.4581	0.816
14.4978	0.8119
14.5375	0.812
14.5772	0.821
14.6169	0.821
14.6566	0.8202
14.6962	0.816
14.7359	0.817
14.7756	0.8174
14.8153	0.824
14.855	0.826
14.8947	0.829
14.9343	0.827
14.974	0.827
15.0137	0.8243
15.0534	0.8035
15.0931	0.7318
15.1328	0.6666
15.1725	0.652
15.2121	0.6665
15.2518	0.6946
15.2915	0.7047
15.3312	0.7203
15.3709	0.7216
15.4106	0.7275
