Infrared Spectrum: 1,4-PIPERAZINEDIACETONITRILE, Alpha,Alpha',2-TRIMETHYL-
Formula: C11 H18 N4
CAS: 92059-12-6
State: SOLID (SPLIT MULL)
Class: COBLENTZ III
Instrument: DOW KBr FOREPRISM-GRATING
Instrument parameters: BLAZED AT 3.5, 12.0, 20.0 MICRON AND CHANGED AT 5.0, 7.5, 14.9 MICRON
Sampling: TRANSMISSION
Resolution: 2
Origin: DOW CHEMICAL COMPANY
1/CM	TRANSMITTANCE
3806	0.5594
3797	0.56
3788	0.5606
3779	0.5612
3770	0.5618
3761	0.5623
3752	0.5639
3743	0.5657
3734	0.5676
3725	0.5698
3716	0.5722
3707	0.5745
3698	0.5758
3689	0.5758
3680	0.5758
3671	0.5766
3662	0.5777
3653	0.5789
3644	0.581
3635	0.5833
3626	0.5854
3617	0.5864
3608	0.5875
3599	0.5885
3590	0.5892
3581	0.5898
3572	0.5905
3563	0.591
3554	0.5919
3545	0.5928
3536	0.5937
3527	0.5946
3518	0.5955
3509	0.5964
3500	0.5976
3491	0.5989
3482	0.6002
3473	0.6014
3464	0.6027
3455	0.604
3446	0.6054
3437	0.6072
3428	0.6089
3419	0.6106
3410	0.6123
3401	0.6141
3392	0.6158
3383	0.6174
3374	0.6189
3365	0.6205
3356	0.622
3347	0.6235
3338	0.6246
3329	0.6257
3320	0.6268
3311	0.6279
3302	0.629
3293	0.6299
3284	0.6309
3275	0.6318
3266	0.6328
3257	0.6337
3248	0.635
3239	0.6364
3230	0.6379
3221	0.6394
3212	0.6408
3203	0.6422
3194	0.6439
3185	0.6454
3176	0.6469
3167	0.6486
3158	0.6501
3149	0.6518
3140	0.6541
3131	0.6561
3122	0.6584
3113	0.6605
3104	0.6626
3095	0.6649
3086	0.6671
3077	0.6695
3068	0.6719
3059	0.6746
3050	0.6771
3041	0.6795
3032	0.6821
3023	0.684
3014	0.6748
3005	0.1906
2996	0.2348
2987	0.345
2978	0.284
2969	0.3288
2960	0.4576
2951	0.2596
2942	0.2742
2933	0.3752
2924	0.461
2915	0.4537
2906	0.4532
2897	0.5021
2888	0.5284
2879	0.43
2870	0.5288
2861	0.453
2852	0.2837
2843	0.332
2834	0.2397
2825	0.145
2816	0.2483
2807	0.3968
2798	0.4995
2789	0.5434
2780	0.5475
2771	0.517
2762	0.5282
2753	0.5318
2744	0.5294
2735	0.5371
2726	0.5359
2717	0.5628
2708	0.5778
2699	0.5974
2690	0.602
2681	0.6134
2672	0.6231
2663	0.632
2654	0.638
2645	0.6364
2636	0.6436
2627	0.6505
2618	0.6564
2609	0.6622
2600	0.6678
2591	0.6728
2582	0.6781
2573	0.6818
2564	0.6851
2555	0.6883
2546	0.6906
2537	0.6921
2528	0.6937
2519	0.6951
2510	0.6953
2501	0.6951
2492	0.6951
2483	0.6949
2474	0.6946
2465	0.6941
2456	0.6938
2447	0.6933
2438	0.6928
2429	0.6924
2420	0.6918
2411	0.6908
2402	0.69
2393	0.6892
2384	0.6892
2375	0.69
2366	0.6911
2357	0.6891
2348	0.6837
2339	0.6789
2330	0.6774
2321	0.6765
2312	0.6785
2303	0.6815
2294	0.6849
2285	0.6889
2276	0.6939
2267	0.6992
2258	0.7054
2249	0.7128
2240	0.7176
2231	0.4789
2222	0.6626
2213	0.7239
2204	0.7318
2195	0.7372
2186	0.7412
2177	0.7462
2168	0.754
2159	0.7589
2150	0.7628
2141	0.7662
2132	0.769
2123	0.7715
2114	0.7742
2105	0.7765
2096	0.779
2087	0.7817
2078	0.7844
2069	0.7871
2060	0.7906
2051	0.7948
2042	0.7986
2033	0.8022
2024	0.8055
2015	0.8056
2006	0.8088
1997	0.8189
1988	0.8334
1979	0.8352
1970	0.8324
1961	0.8381
1952	0.8457
1943	0.8431
1934	0.8437
1925	0.8457
1916	0.8456
1907	0.8477
1898	0.8493
1889	0.8501
1880	0.8493
1871	0.8463
1862	0.8449
1853	0.8461
1844	0.8495
1835	0.8508
1826	0.8518
1817	0.8521
1808	0.852
1799	0.8516
1790	0.8513
1781	0.8512
1772	0.8515
1763	0.8521
1754	0.8528
1745	0.8538
1736	0.8547
1727	0.861
1718	0.8598
1709	0.8613
1700	0.8571
1691	0.8477
1682	0.8478
1673	0.8501
1664	0.8535
1655	0.8527
1646	0.8523
1637	0.8574
1628	0.8593
1619	0.8575
1610	0.8688
1601	0.8708
1592	0.8723
1583	0.8733
1574	0.8735
1565	0.8721
1556	0.8606
1547	0.8652
1538	0.8495
1529	0.8571
1520	0.8573
1511	0.8578
1502	0.8499
1493	0.8585
1484	0.849
1475	0.7875
1466	0.5138
1457	0.4424
1448	0.264
1439	0.674
1430	0.7351
1421	0.7575
1412	0.7628
1403	0.7538
1394	0.6978
1385	0.3795
1376	0.3739
1367	0.4894
1358	0.6465
1349	0.6077
1340	0.2144
1331	0.4217
1322	0.5996
1313	0.3341
1304	0.5159
1295	0.5881
1286	0.6262
1277	0.2152
1268	0.5629
1259	0.6512
1250	0.6734
1241	0.6519
1232	0.3396
1223	0.6492
1214	0.6651
1205	0.5767
1196	0.4895
1187	0.6256
1178	0.046
1169	0.3636
1160	0.3093
1151	0.4438
1142	0.2287
1133	0.2347
1124	0.4698
1115	0.6209
1106	0.6521
1097	0.6619
1088	0.2184
1079	0.4751
1070	0.5544
1061	0.3014
1052	0.3065
1043	0.3017
1034	0.5885
1025	0.6881
1016	0.7095
1007	0.641
998	0.6685
989	0.7321
980	0.7461
971	0.7269
962	0.7206
953	0.7301
944	0.6925
935	0.6172
926	0.743
917	0.7512
908	0.6436
899	0.754
890	0.7568
881	0.5912
872	0.7528
863	0.7889
854	0.7855
845	0.7811
836	0.7837
827	0.7458
818	0.4648
809	0.2583
800	0.6518
791	0.5144
782	0.7294
773	0.6978
764	0.7491
755	0.7704
746	0.7617
737	0.6237
728	0.6748
719	0.6202
710	0.7408
701	0.8299
692	0.8534
683	0.7591
674	0.8666
665	0.8844
656	0.8727
647	0.8714
638	0.8708
629	0.8735
620	0.8765
611	0.877
602	0.8754
593	0.8695
584	0.8712
575	0.8642
566	0.6289
557	0.8155
548	0.844
539	0.8435
530	0.8286
521	0.7454
512	0.8559
503	0.8703
494	0.8797
485	0.8811
476	0.8733
467	0.8477
458	0.8939
449	0.8982
440	0.8962
431	0.876
422	0.7362
413	0.841
404	0.9063
395	0.9263
386	0.9395
377	0.9514
