Infrared Spectrum: 2,3,4-Trimethylhexane
Formula: C 9 H 20
CAS: 921-47-1
State: gas
Instrument: HP-GC/MS/IRD
Origin: NIST Mass Spectrometry Data Center
1/CM	ABSORBANCE
550	0.0001673
562	9.24e-05
574	8.89e-05
586	6.23e-05
598	7.14e-05
610	0.0001176
622	0.0001204
634	6.65e-05
646	5.39e-05
658	0.0001127
670	4.55e-05
682	7.56e-05
694	6.72e-05
706	7.49e-05
718	0.0001645
730	0.0001064
742	0.0001099
754	0.0001169
766	0.0001008
778	0.0001491
790	0.0001183
802	0.0001064
814	8.05e-05
826	9.94e-05
838	9.31e-05
850	7.84e-05
862	0.00014
874	0.0001246
886	0.0001141
898	0.0001134
910	0.0001099
922	0.0001274
934	0.0001407
946	0.0001596
958	0.0001659
970	0.0001589
982	0.0002324
994	0.0002324
1006	0.0002359
1018	0.0002191
1030	0.000217
1042	0.000203
1054	0.0001785
1066	0.0001687
1078	0.0001582
1090	0.0001491
1102	0.0002471
1114	0.0003262
1126	0.0002856
1138	0.0001729
1150	0.0001092
1162	0.000105
1174	0.0001092
1186	9.87e-05
1198	7.98e-05
1210	7.7e-05
1222	0.0001127
1234	6.16e-05
1246	0.0001141
1258	0.0001183
1270	0.0001078
1282	0.0001442
1294	0.0001351
1306	0.0001421
1318	0.0001498
1330	0.0001785
1342	0.0001953
1354	0.0002765
1366	0.0005453
1378	0.0009268
1390	0.0009282
1402	0.0004445
1414	0.0002135
1426	0.0002058
1438	0.0003199
1450	0.0005873
1462	0.0008806
1474	0.0007987
1486	0.0004256
1498	0.0002149
1510	0.0001386
1522	9.8e-05
1534	0.0001036
1546	7e-05
1558	4.62e-05
1570	4.69e-05
1582	7.35e-05
1594	5.32e-05
1606	7.84e-05
1618	3.92e-05
1630	6.16e-05
1642	7e-05
1654	4.48e-05
1666	6.37e-05
1678	4.97e-05
1690	5.88e-05
1702	2.8e-05
1714	3.64e-05
1726	3.08e-05
1738	2.59e-05
1750	4.9e-05
1762	3.08e-05
1774	3.99e-05
1786	3.5e-05
1798	5.11e-05
1810	3.85e-05
1822	6.3e-05
1834	4.41e-05
1846	5.18e-05
1858	2.03e-05
1870	2.45e-05
1882	2.8e-05
1894	1.75e-05
1906	3.01e-05
1918	3.01e-05
1930	2.52e-05
1942	4.27e-05
1954	1.82e-05
1966	2.1e-05
1978	2.59e-05
1990	3.36e-05
2002	1.33e-05
2014	2.94e-05
2026	2.8e-05
2038	3.29e-05
2050	4.13e-05
2062	1.89e-05
2074	2.52e-05
2086	1.96e-05
2098	1.68e-05
2110	2.1e-05
2122	2.52e-05
2134	3.78e-05
2146	3.85e-05
2158	2.1e-05
2170	1.82e-05
2182	1.4e-05
2194	2.31e-05
2206	2.8e-05
2218	2.1e-05
2230	3.5e-06
2242	3.01e-05
2254	1.05e-05
2266	1.4e-05
2278	1.89e-05
2290	3.64e-05
2302	4.69e-05
2314	4.76e-05
2326	3.08e-05
2338	2.8e-05
2350	2.66e-05
2362	1.89e-05
2374	2.52e-05
2386	4.69e-05
2398	4.69e-05
2410	4.2e-05
2422	6.02e-05
2434	5.32e-05
2446	3.64e-05
2458	4.97e-05
2470	3.85e-05
2482	3.29e-05
2494	3.99e-05
2506	6.93e-05
2518	5.46e-05
2530	3.64e-05
2542	5.18e-05
2554	6.09e-05
2566	8.19e-05
2578	8.82e-05
2590	9.24e-05
2602	0.000105
2614	0.0001029
2626	0.0001057
2638	9.52e-05
2650	0.0001141
2662	0.0001141
2674	9.45e-05
2686	8.4e-05
2698	0.0001141
2710	0.0001358
2722	0.0001568
2734	0.0001848
2746	0.0001666
2758	0.0001666
2770	0.0001666
2782	0.0001806
2794	0.0001911
2806	0.0002359
2818	0.0002968
2830	0.000378
2842	0.0005278
2854	0.0008225
2866	0.0015813
2878	0.0027573
2890	0.0031199
2902	0.002555
2914	0.0026593
2926	0.003241
2938	0.0037415
2950	0.004354
2962	0.0064407
2974	0.0065884
2986	0.0036141
2998	0.001449
3010	0.0007245
3022	0.0004564
3034	0.0003647
3046	0.0003017
3058	0.0002338
3070	0.0002009
3082	0.0001918
3094	0.0002079
3106	0.0001764
3118	0.0001827
3130	0.0001736
3142	0.0001435
3154	0.0001309
3166	0.0001323
3178	0.0001288
3190	0.0001239
3202	0.0001197
3214	7.84e-05
3226	9.24e-05
3238	3.78e-05
3250	7.21e-05
3262	5.11e-05
3274	9.31e-05
3286	8.19e-05
3298	7.28e-05
3310	9.24e-05
3322	3.78e-05
3334	6.79e-05
3346	5.81e-05
3358	2.66e-05
3370	6.44e-05
3382	4.62e-05
3394	3.22e-05
3406	3.78e-05
3418	6.02e-05
3430	4.69e-05
3442	5.53e-05
3454	3.57e-05
3466	2.03e-05
3478	2.38e-05
3490	6.58e-05
3502	3.5e-05
3514	4.69e-05
3526	4.55e-05
3538	3.08e-05
3550	6.44e-05
3562	3.78e-05
3574	4.9e-05
3586	3.29e-05
3598	4.55e-05
3610	5.39e-05
3622	6.09e-05
3634	5.11e-05
3646	2.94e-05
3658	4.9e-06
3670	3.36e-05
3682	3.43e-05
3694	4.69e-05
3706	5.18e-05
3718	6.51e-05
3730	1.82e-05
3742	3.29e-05
3754	4.9e-05
3766	3.43e-05
3778	3.5e-05
3790	6.72e-05
3802	5.04e-05
3814	4.69e-05
3826	3.78e-05
3838	6.23e-05
