Infrared Spectrum: 1,1,3-TRICHLORO-2-PROPANONE
Formula: C3 H3 Cl3 O
CAS: 921-03-9
State: LIQUID (NEAT)
Class: COBLENTZ III
Instrument: BAIRD (GRATING)
Instrument parameters: NaCl PRISM
Path length: 0.003 CM
Resolution: 2
Origin: WYANDOTTE CHEMICALS CORP.
1/CM	TRANSMITTANCE
626	0.4493
635	0.3994
644	0.3278
653	0.2845
662	0.3498
671	0.3621
680	0.273
689	0.1466
698	0.1128
707	0.1572
716	0.1528
725	0.0788
734	0.0528
743	0.0457
752	0.0394
761	0.0392
770	0.0589
779	0.123
788	0.1544
797	0.1561
806	0.0624
815	0.0345
824	0.0395
833	0.0335
842	0.0898
851	0.2367
860	0.5053
869	0.6393
878	0.6993
887	0.666
896	0.688
905	0.6679
914	0.5217
923	0.6126
932	0.7257
941	0.803
950	0.8269
959	0.8475
968	0.8398
977	0.832
986	0.8202
995	0.7995
1004	0.7812
1013	0.774
1022	0.7198
1031	0.6367
1040	0.4561
1049	0.1979
1058	0.2174
1067	0.2895
1076	0.3078
1085	0.3166
1094	0.3567
1103	0.3971
1112	0.3253
1121	0.1542
1130	0.0551
1139	0.2583
1148	0.546
1157	0.6011
1166	0.5105
1175	0.43
1184	0.5184
1193	0.5503
1202	0.4183
1211	0.1725
1220	0.1496
1229	0.2023
1238	0.287
1247	0.4337
1256	0.4149
1265	0.3261
1274	0.2268
1283	0.2283
1292	0.3202
1301	0.4154
1310	0.3059
1319	0.3012
1328	0.582
1337	0.6857
1346	0.7085
1355	0.7114
1364	0.7072
1373	0.6826
1382	0.5929
1391	0.4697
1400	0.0865
1409	0.0321
1418	0.1302
1427	0.3272
1436	0.4419
1445	0.5126
1454	0.702
1463	0.7707
1472	0.8003
1481	0.8227
1490	0.8401
1499	0.8529
1508	0.8619
1517	0.8679
1526	0.8744
1535	0.8695
1544	0.8715
1553	0.8776
1562	0.8855
1571	0.8958
1580	0.905
1589	0.9098
1598	0.9067
1607	0.8921
1616	0.8658
1625	0.8367
1634	0.8106
1643	0.8153
1652	0.8277
1661	0.8278
1670	0.8012
1679	0.7697
1688	0.7341
1697	0.7077
1706	0.6867
1715	0.6462
1724	0.5772
1733	0.4446
1742	0.2501
1751	0.0499
1760	0.0293
1769	0.0278
1778	0.0856
1787	0.2723
1796	0.4314
1805	0.5275
1814	0.6449
1823	0.712
1832	0.7978
1841	0.8383
1850	0.8687
1859	0.8952
1868	0.9133
1877	0.9277
1886	0.9371
1895	0.9387
1904	0.9308
1913	0.9298
1922	0.9321
1931	0.9386
1940	0.9534
1949	0.9586
1958	0.9605
1967	0.9659
1976	0.964
1985	0.9607
1994	0.9636
2003	0.969
2012	0.9694
2021	0.9677
2030	0.9657
2039	0.9627
2048	0.9586
2057	0.9554
2066	0.9528
2075	0.9507
2084	0.9511
2093	0.9531
2102	0.9648
2111	0.9655
2120	0.9642
2129	0.9637
2138	0.9667
2147	0.9699
2156	0.9705
2165	0.9704
2174	0.9698
2183	0.9669
2192	0.9631
2201	0.9606
2210	0.9584
2219	0.9565
2228	0.9553
2237	0.955
2246	0.9558
2255	0.9565
2264	0.9515
2273	0.94
2282	0.9265
2291	0.9079
2300	0.9004
2309	0.9009
2318	0.9041
2327	0.9077
2336	0.9096
2345	0.9101
2354	0.9093
2363	0.9073
2372	0.9048
2381	0.9017
2390	0.8978
2399	0.8931
2408	0.8888
2417	0.8876
2426	0.89
2435	0.8944
2444	0.8977
2453	0.8986
2462	0.8991
2471	0.901
2480	0.9096
2489	0.9149
2498	0.9156
2507	0.915
2516	0.9159
2525	0.9228
2534	0.928
2543	0.9299
2552	0.9313
2561	0.9327
2570	0.9364
2579	0.9395
2588	0.9417
2597	0.9402
2606	0.9362
2615	0.9322
2624	0.9325
2633	0.9346
2642	0.9392
2651	0.942
2660	0.9413
2669	0.9408
2678	0.9412
2687	0.9422
2696	0.9424
2705	0.9407
2714	0.9377
2723	0.9344
2732	0.933
2741	0.9351
2750	0.9368
2759	0.9354
2768	0.9298
2777	0.924
2786	0.9186
2795	0.914
2804	0.9102
2813	0.9065
2822	0.9033
2831	0.8994
2840	0.8938
2849	0.8884
2858	0.8821
2867	0.8757
2876	0.8684
2885	0.8598
2894	0.8513
2903	0.8423
2912	0.8325
2921	0.8226
2930	0.8066
2939	0.7845
2948	0.7514
2957	0.6241
2966	0.4599
2975	0.2967
2984	0.2194
2993	0.2316
3002	0.2517
3011	0.2424
3020	0.2194
3029	0.1965
3038	0.1881
3047	0.2169
3056	0.2957
3065	0.374
3074	0.452
3083	0.5294
3092	0.6064
3101	0.6821
3110	0.7191
3119	0.7526
3128	0.7789
3137	0.802
3146	0.8225
3155	0.8406
3164	0.8567
3173	0.8645
3182	0.8706
3191	0.8729
3200	0.8751
3209	0.8769
3218	0.8782
3227	0.8793
3236	0.8798
3245	0.8803
3254	0.8807
3263	0.8811
3272	0.8815
3281	0.8819
3290	0.8822
3299	0.8806
3308	0.8829
3317	0.8831
3326	0.8829
3335	0.8828
3344	0.8826
3353	0.8821
3362	0.8808
3371	0.8788
3380	0.876
3389	0.8722
3398	0.8681
3407	0.8623
3416	0.8561
3425	0.8495
3434	0.843
3443	0.8361
3452	0.8293
3461	0.8225
3470	0.8151
3479	0.8059
3488	0.7888
3497	0.7534
3506	0.7183
3515	0.6832
3524	0.6567
3533	0.6545
3542	0.6544
3551	0.6627
3560	0.6713
3569	0.6777
3578	0.6841
3587	0.7024
3596	0.7213
3605	0.7401
3614	0.7588
3623	0.7774
3632	0.7959
3641	0.8143
3650	0.8327
3659	0.851
3668	0.8691
3677	0.8854
3686	0.8905
3695	0.8929
3704	0.8944
3713	0.8951
3722	0.8957
3731	0.8962
3740	0.8967
3749	0.8972
3758	0.8979
3767	0.8991
3776	0.9032
3785	0.9107
3794	0.9208
3803	0.9312
3812	0.9405
3821	0.9492
3830	0.9563
3839	0.9609
3848	0.9623
3857	0.9627
3866	0.9627
3875	0.9627
3884	0.9624
3893	0.9621
3902	0.9619
3911	0.9618
3920	0.9618
3929	0.9619
3938	0.962
3947	0.962
3956	0.9622
3965	0.9622
3974	0.9625
3983	0.9627
3992	0.963
