Infrared Spectrum: 2-CHLOROISOVALERIC ACID
Formula: C5 H9 Cl O2
CAS: 921-08-4
State: SOLUTION (10% IN CCl4 FOR 5000-1350 CM^-^1, 10% IN CS2 FOR 1350-625 CM^-^1)
Class: COBLENTZ
Instrument: Not specified, most likely a prism, grating, or hybrid spectrometer.
Sampling: TRANSMISSION
Path length: 0.01 CM, 0.01 CM
Resolution: 4
Origin: DOW CHEMICAL COMPANY
MICROMETERS	TRANSMITTANCE
2.031	0.872
2.07029	0.873
2.10959	0.873
2.14888	0.873
2.18818	0.873
2.22747	0.862
2.26677	0.862
2.30606	0.867
2.34535	0.872
2.38465	0.868
2.42394	0.87
2.46324	0.872
2.50253	0.877
2.54182	0.875
2.58112	0.87
2.62041	0.875
2.65971	0.87
2.699	0.851
2.7383	0.815
2.77759	0.796
2.81688	0.741
2.85618	0.7
2.89547	0.661
2.93477	0.61
2.97406	0.558
3.01336	0.503
3.05265	0.432
3.09194	0.339
3.13124	0.273
3.17053	0.224
3.20983	0.187
3.24912	0.166
3.28841	0.155
3.32771	0.134
3.367	0.069
3.4063	0.111
3.44559	0.129
3.48489	0.182
3.52418	0.245
3.56347	0.296
3.60277	0.341
3.64206	0.377
3.68136	0.372
3.72065	0.352
3.75994	0.364
3.79924	0.386
3.83853	0.402
3.87783	0.42
3.91712	0.428
3.95642	0.467
3.99571	0.537
4.035	0.601
4.0743	0.652
4.11359	0.682
4.15289	0.702
4.19218	0.711
4.23148	0.726
4.27077	0.741
4.31006	0.76
4.34936	0.768
4.38865	0.783
4.42795	0.794
4.46724	0.799
4.50653	0.804
4.54583	0.805
4.58512	0.812
4.62442	0.817
4.66371	0.818
4.70301	0.817
4.7423	0.817
4.78159	0.817
4.82089	0.823
4.86018	0.818
4.89948	0.818
4.93877	0.815
4.97807	0.8
5.01736	0.797
5.05665	0.799
5.09595	0.794
5.13524	0.791
5.17454	0.791
5.21383	0.784
5.25312	0.773
5.29242	0.766
5.33171	0.758
5.37101	0.752
5.4103	0.742
5.4496	0.723
5.48889	0.695
5.52818	0.642
5.56748	0.569
5.60677	0.5
5.64607	0.423
5.68536	0.305
5.72465	0.165
5.76395	0.035
5.80324	0.021
5.84254	0.042
5.88183	0.187
5.92113	0.351
5.96042	0.454
5.99971	0.524
6.03901	0.545
6.0783	0.605
6.1176	0.632
6.15689	0.64
6.19619	0.629
6.23548	0.582
6.27477	0.546
6.31407	0.53
6.35336	0.504
6.39266	0.47
6.43195	0.427
6.47124	0.469
6.51054	0.54
6.54983	0.559
6.58913	0.606
6.62842	0.666
6.66772	0.69
6.70701	0.677
6.7463	0.533
6.7856	0.315
6.82489	0.25
6.86419	0.365
6.90348	0.412
6.94278	0.373
6.98207	0.297
7.02136	0.254
7.06066	0.294
7.09995	0.399
7.13925	0.461
7.17854	0.43
7.21783	0.488
7.25713	0.545
7.29642	0.677
7.33572	0.686
7.37501	0.661
7.41431	0.626
7.4536	0.587
7.49289	0.548
7.53219	0.503
7.57148	0.427
7.61078	0.336
7.65007	0.265
7.68936	0.21
7.72866	0.182
7.76795	0.176
7.80725	0.205
7.84654	0.234
7.88584	0.26
7.92513	0.252
7.96442	0.27
8.00372	0.336
8.04301	0.37
8.08231	0.373
8.1216	0.398
8.1609	0.42
8.20019	0.383
8.23948	0.271
8.27878	0.221
8.31807	0.309
8.35737	0.393
8.39666	0.417
8.43595	0.394
8.47525	0.375
8.51454	0.385
8.55384	0.456
8.59313	0.508
8.63243	0.49
8.67172	0.475
8.71101	0.517
8.75031	0.54
8.7896	0.561
8.8289	0.555
8.86819	0.504
8.90749	0.474
8.94678	0.493
8.98607	0.55
9.02537	0.584
9.06466	0.569
9.10396	0.576
9.14325	0.666
9.18254	0.699
9.22184	0.694
9.26113	0.721
9.30043	0.742
9.33972	0.749
9.37902	0.749
9.41831	0.734
9.4576	0.69
9.4969	0.668
9.53619	0.699
9.57549	0.728
9.61478	0.733
9.65407	0.708
9.69337	0.666
9.73266	0.652
9.77196	0.669
9.81125	0.684
9.85055	0.66
9.88984	0.642
9.92913	0.634
9.96843	0.629
10.0077	0.618
10.047	0.606
10.0863	0.624
10.1256	0.648
10.1649	0.64
10.2042	0.622
10.2435	0.6
10.2828	0.58
10.3221	0.567
10.3614	0.542
10.4007	0.521
10.44	0.501
10.4793	0.488
10.5185	0.466
10.5578	0.43
10.5971	0.401
10.6364	0.359
10.6757	0.331
10.715	0.307
10.7543	0.297
10.7936	0.307
10.8329	0.31
10.8722	0.317
10.9115	0.322
10.9508	0.333
10.9901	0.351
11.0294	0.368
11.0687	0.388
11.108	0.406
11.1473	0.414
11.1865	0.423
11.2258	0.432
11.2651	0.436
11.3044	0.446
11.3437	0.453
11.383	0.457
11.4223	0.461
11.4616	0.461
11.5009	0.459
11.5402	0.449
11.5795	0.433
11.6188	0.414
11.6581	0.407
11.6974	0.407
11.7367	0.398
11.776	0.355
11.8153	0.331
11.8546	0.372
11.8938	0.417
11.9331	0.444
11.9724	0.462
12.0117	0.483
12.051	0.5
12.0903	0.514
12.1296	0.527
12.1689	0.537
12.2082	0.542
12.2475	0.543
12.2868	0.543
12.3261	0.54
12.3654	0.53
12.4047	0.519
12.444	0.498
12.4833	0.474
12.5226	0.456
12.5618	0.449
12.6011	0.444
12.6404	0.451
12.6797	0.461
12.719	0.475
12.7583	0.496
12.7976	0.522
12.8369	0.545
12.8762	0.563
12.9155	0.579
12.9548	0.592
12.9941	0.603
13.0334	0.611
13.0727	0.616
13.112	0.616
13.1513	0.613
13.1906	0.61
13.2298	0.6
13.2691	0.592
13.3084	0.588
13.3477	0.588
13.387	0.593
13.4263	0.598
13.4656	0.6
13.5049	0.603
13.5442	0.608
13.5835	0.611
13.6228	0.614
13.6621	0.613
13.7014	0.61
13.7407	0.605
13.78	0.597
13.8193	0.584
13.8586	0.569
13.8978	0.558
13.9371	0.54
13.9764	0.524
14.0157	0.503
14.055	0.488
14.0943	0.469
14.1336	0.453
14.1729	0.443
14.2122	0.438
14.2515	0.428
14.2908	0.42
14.3301	0.409
14.3694	0.396
14.4087	0.383
14.448	0.37
14.4873	0.36
14.5266	0.351
14.5659	0.343
14.6051	0.341
14.6444	0.333
14.6837	0.333
14.723	0.331
14.7623	0.331
14.8016	0.336
14.8409	0.339
14.8802	0.343
14.9195	0.343
14.9588	0.359
14.9981	0.368
15.0374	0.372
15.0767	0.372
15.116	0.37
15.1553	0.368
15.1946	0.36
15.2339	0.355
15.2731	0.352
15.3124	0.351
15.3517	0.352
15.391	0.352
15.4303	0.349
15.4696	0.347
15.5089	0.343
15.5482	0.341
15.5875	0.338
15.6268	0.328
15.6661	0.322
15.7054	0.32
15.7447	0.313
15.784	0.309
15.8233	0.3
15.8626	0.3
15.9019	0.312
