Infrared Spectrum: o-Nitrocarbanilic acid, 3-hexen-1-ol ester
Formula: C13 H16 N2 O4
CAS: 92109-06-3
State: LIQUID (NEAT)
Class: COBLENTZ III
Instrument: BECKMAN IR-4 (HYBRID PRISM-GRATING)
Sampling: TRANSMISSION
Path length: CAPILLARY
Resolution: 2
Origin: UNIVERSITY OF FLORIDA
1/CM	TRANSMITTANCE
666	0.3905
675	0.3335
684	0.3927
693	0.5052
702	0.5931
711	0.6331
720	0.6102
729	0.4778
738	0.146
747	0.2736
756	0.5484
765	0.3455
774	0.5676
783	0.294
792	0.6689
801	0.7641
810	0.7778
819	0.7349
828	0.6606
837	0.6311
846	0.6882
855	0.6487
864	0.3658
873	0.7486
882	0.8078
891	0.81
900	0.8046
909	0.7873
918	0.7886
927	0.7584
936	0.774
945	0.7369
954	0.5694
963	0.3039
972	0.4019
981	0.6082
990	0.6564
999	0.6967
1008	0.7133
1017	0.6564
1026	0.4909
1035	0.2901
1044	0.219
1053	0.2065
1062	0.2844
1071	0.3876
1080	0.2732
1089	0.2361
1098	0.4997
1107	0.6478
1116	0.6738
1125	0.6917
1134	0.6467
1143	0.4126
1152	0.4057
1161	0.2562
1170	0.4802
1179	0.463
1188	0.1464
1197	0.0164
1206	0.0206
1215	0.1614
1224	0.2411
1233	0.1025
1242	0.0128
1251	0.1068
1260	0.2231
1269	0.1392
1278	0.0839
1287	0.1198
1296	0.2145
1305	0.2464
1314	0.1925
1323	0.1936
1332	0.1891
1341	0.0375
1350	0.0453
1359	0.2935
1368	0.4588
1377	0.421
1386	0.3906
1395	0.4505
1404	0.4224
1413	0.351
1422	0.2335
1431	0.103
1440	0.0464
1449	0.1264
1458	0.083
1467	0.162
1476	0.3241
1485	0.3806
1494	0.1598
1503	0.0383
1512	0.0255
1521	0.036
1530	0.1593
1539	0.3079
1548	0.3172
1557	0.4725
1566	0.5803
1575	0.42
1584	0.0783
1593	0.2609
1602	0.3048
1611	0.0582
1620	0.2376
1629	0.5424
1638	0.6602
1647	0.7007
1656	0.7225
1665	0.7344
1674	0.7557
1683	0.7575
1692	0.7436
1701	0.7115
1710	0.6611
1719	0.6048
1728	0.3774
1737	0.1525
1746	0.0518
1755	0.1303
1764	0.3839
1773	0.6117
1782	0.7136
1791	0.7478
1800	0.7678
1809	0.7811
1818	0.7646
1827	0.7747
1836	0.7966
1845	0.8162
1854	0.8287
1863	0.8441
1872	0.8506
1881	0.859
1890	0.8638
1899	0.8656
1908	0.8656
1917	0.8644
1926	0.863
1935	0.8558
1944	0.8552
1953	0.857
1962	0.8591
1971	0.8607
1980	0.8626
1989	0.8651
1998	0.8687
2007	0.8728
2016	0.8754
2025	0.8758
2034	0.8787
2043	0.884
2052	0.8893
2061	0.8894
2070	0.8892
2079	0.8887
2088	0.8877
2097	0.8863
2106	0.8841
2115	0.8816
2124	0.879
2133	0.8771
2142	0.8754
2151	0.8738
2160	0.8726
2169	0.8717
2178	0.871
2187	0.8707
2196	0.8705
2205	0.8706
2214	0.8713
2223	0.8717
2232	0.8719
2241	0.8726
2250	0.874
2259	0.8758
2268	0.8774
2277	0.8777
2286	0.8774
2295	0.8768
2304	0.8764
2313	0.8761
2322	0.8773
2331	0.8782
2340	0.8768
2349	0.8739
2358	0.8695
2367	0.8698
2376	0.87
2385	0.869
2394	0.8671
2403	0.8627
2412	0.8584
2421	0.8587
2430	0.8596
2439	0.8602
2448	0.8622
2457	0.8651
2466	0.8685
2475	0.8724
2484	0.8767
2493	0.8774
2502	0.8783
2511	0.881
2520	0.8823
2529	0.8798
2538	0.8762
2547	0.8746
2556	0.8738
2565	0.8738
2574	0.8734
2583	0.8711
2592	0.8652
2601	0.8605
2610	0.8605
2619	0.8621
2628	0.8681
2637	0.8737
2646	0.8735
2655	0.8726
2664	0.8713
2673	0.8699
2682	0.868
2691	0.8669
2700	0.8677
2709	0.8718
2718	0.8721
2727	0.8698
2736	0.8639
2745	0.8544
2754	0.8512
2763	0.8511
2772	0.8499
2781	0.8478
2790	0.8445
2799	0.8401
2808	0.8345
2817	0.8288
2826	0.8162
2835	0.8029
2844	0.7543
2853	0.6743
2862	0.6142
2871	0.6071
2880	0.599
2889	0.5895
2898	0.5627
2907	0.5352
2916	0.5089
2925	0.4828
2934	0.4568
2943	0.4325
2952	0.4184
2961	0.3641
2970	0.3429
2979	0.3807
2988	0.4759
2997	0.5705
3006	0.6613
3015	0.683
3024	0.6848
3033	0.6992
3042	0.7331
3051	0.7669
3060	0.7844
3069	0.7904
3078	0.791
3087	0.7898
3096	0.7864
3105	0.7822
3114	0.7783
3123	0.7743
3132	0.7725
3141	0.7785
3150	0.8134
3159	0.8324
3168	0.8431
3177	0.856
3186	0.8567
3195	0.856
3204	0.854
3213	0.8542
3222	0.8581
3231	0.8619
3240	0.8629
3249	0.8621
3258	0.8598
3267	0.8549
3276	0.8478
3285	0.8405
3294	0.8326
3303	0.8233
3312	0.8037
3321	0.765
3330	0.6846
3339	0.6047
3348	0.5252
3357	0.4461
3366	0.3675
3375	0.3286
3384	0.3857
3393	0.4703
3402	0.5544
3411	0.6381
3420	0.7212
3429	0.8189
3438	0.8344
3447	0.8401
3456	0.845
3465	0.8488
3474	0.8525
3483	0.8561
3492	0.8596
3501	0.8627
3510	0.8659
3519	0.869
3528	0.8721
3537	0.8751
3546	0.878
3555	0.8803
3564	0.8824
3573	0.8847
3582	0.8875
3591	0.8903
3600	0.8933
3609	0.8962
3618	0.8987
3627	0.8994
3636	0.8996
3645	0.8991
3654	0.8987
3663	0.8982
3672	0.8976
3681	0.8971
3690	0.8965
3699	0.8961
3708	0.8972
3717	0.8987
3726	0.9002
3735	0.9014
3744	0.9025
3753	0.9036
3762	0.9036
3771	0.9035
3780	0.9034
3789	0.9033
3798	0.9032
3807	0.903
3816	0.9029
3825	0.9028
3834	0.9028
3843	0.9027
3852	0.9027
3861	0.9027
3870	0.902
3879	0.9007
3888	0.8994
3897	0.9
3906	0.9014
3915	0.9038
3924	0.9063
3933	0.9069
3942	0.9074
3951	0.9078
3960	0.9082
3969	0.9074
3978	0.9062
3987	0.905
3996	0.9027
