Infrared Spectrum: Alpha,Alpha'-DIACETYL-N,N'-DIETHYL-GLUTARAMIDE
Formula: C13 H22 N2 O4
CAS: 92107-46-5
State: SOLID (KBr PRESSING)
Melting point: 170.5-171.5 C
Class: COBLENTZ
Instrument: Not specified, most likely a prism, grating, or hybrid spectrometer.
Sampling: TRANSMISSION
Resolution: 4
Origin: EASTMAN KODAK COMPANY, RESEARCH LABORATORIES, ROCHESTER, N.Y.
MICROMETERS	TRANSMITTANCE
2.16	0.756
2.19998	0.761
2.23996	0.759
2.27994	0.747
2.31993	0.764
2.35991	0.761
2.39989	0.747
2.43987	0.765
2.47985	0.767
2.51983	0.77
2.55981	0.774
2.59979	0.774
2.63978	0.787
2.67976	0.792
2.71974	0.782
2.75972	0.757
2.7997	0.702
2.83968	0.654
2.87966	0.617
2.91964	0.589
2.95963	0.545
2.99961	0.404
3.03959	0.103
3.07957	0.075
3.11955	0.258
3.15953	0.492
3.19951	0.618
3.23949	0.456
3.27948	0.451
3.31946	0.672
3.35944	0.433
3.39942	0.495
3.4394	0.558
3.47938	0.605
3.51936	0.729
3.55934	0.743
3.59933	0.767
3.63931	0.793
3.67929	0.785
3.71927	0.798
3.75925	0.808
3.79923	0.821
3.83921	0.826
3.8792	0.836
3.91918	0.828
3.95916	0.829
3.99914	0.837
4.03912	0.833
4.0791	0.828
4.11908	0.826
4.15906	0.834
4.19905	0.837
4.23903	0.851
4.27901	0.854
4.31899	0.834
4.35897	0.839
4.39895	0.847
4.43893	0.839
4.47891	0.857
4.5189	0.829
4.55888	0.844
4.59886	0.849
4.63884	0.828
4.67882	0.852
4.7188	0.829
4.75878	0.837
4.79876	0.839
4.83875	0.847
4.87873	0.847
4.91871	0.844
4.95869	0.847
4.99867	0.834
5.03865	0.841
5.07863	0.862
5.11861	0.839
5.1586	0.834
5.19858	0.828
5.23856	0.836
5.27854	0.834
5.31852	0.815
5.3585	0.829
5.39848	0.829
5.43847	0.821
5.47845	0.819
5.51843	0.819
5.55841	0.792
5.59839	0.798
5.63837	0.765
5.67835	0.736
5.71833	0.653
5.75832	0.597
5.7983	0.394
5.83828	0.008
5.87826	0.152
5.91824	0.492
5.95822	0.558
5.9982	0.392
6.03818	0.248
6.07817	0.058
6.11815	0.031
6.15813	0.127
6.19811	0.346
6.23809	0.456
6.27807	0.507
6.31805	0.441
6.35803	0.292
6.39802	0.106
6.438	0.094
6.47798	0.139
6.51796	0.222
6.55794	0.405
6.59792	0.453
6.6379	0.538
6.67788	0.571
6.71787	0.59
6.75785	0.585
6.79783	0.553
6.83781	0.5
6.87779	0.348
6.91777	0.378
6.95775	0.307
6.99773	0.299
7.03772	0.348
7.0777	0.402
7.11768	0.497
7.15766	0.535
7.19764	0.551
7.23762	0.518
7.2776	0.412
7.31759	0.312
7.35757	0.198
7.39755	0.153
7.43753	0.292
7.47751	0.407
7.51749	0.481
7.55747	0.509
7.59745	0.484
7.63744	0.396
7.67742	0.327
7.7174	0.253
7.75738	0.307
7.79736	0.415
7.83734	0.51
7.87732	0.558
7.9173	0.553
7.95729	0.5
7.99727	0.499
8.03725	0.425
8.07723	0.358
8.11721	0.389
8.15719	0.484
8.19717	0.641
8.23715	0.705
8.27714	0.733
8.31712	0.734
8.3571	0.738
8.39708	0.7
8.43706	0.626
8.47704	0.59
8.51702	0.502
8.557	0.466
8.59699	0.49
8.63697	0.456
8.67695	0.178
8.71693	0.306
8.75691	0.549
8.79689	0.702
8.83687	0.757
8.87686	0.779
8.91684	0.793
8.95682	0.798
8.9968	0.783
9.03678	0.792
9.07676	0.79
9.11674	0.797
9.15672	0.77
9.19671	0.752
9.23669	0.782
9.27667	0.81
9.31665	0.813
9.35663	0.833
9.39661	0.837
9.43659	0.818
9.47657	0.772
9.51656	0.754
9.55654	0.757
9.59652	0.702
9.6365	0.669
9.67648	0.736
9.71646	0.795
9.75644	0.816
9.79642	0.815
9.83641	0.798
9.87639	0.774
9.91637	0.764
9.95635	0.765
9.99633	0.788
10.0363	0.811
10.0763	0.828
10.1163	0.826
10.1563	0.824
10.1962	0.834
10.2362	0.818
10.2762	0.795
10.3162	0.777
10.3562	0.752
10.3961	0.729
10.4361	0.749
10.4761	0.783
10.5161	0.78
10.5561	0.747
10.5961	0.723
10.636	0.723
10.676	0.734
10.716	0.777
10.756	0.798
10.796	0.803
10.8359	0.811
10.8759	0.795
10.9159	0.805
10.9559	0.783
10.9959	0.759
11.0358	0.746
11.0758	0.762
11.1158	0.774
11.1558	0.783
11.1958	0.787
11.2358	0.77
11.2757	0.736
11.3157	0.7
11.3557	0.661
11.3957	0.621
11.4357	0.644
11.4756	0.661
11.5156	0.716
11.5556	0.762
11.5956	0.797
11.6356	0.829
11.6755	0.839
11.7155	0.849
11.7555	0.857
11.7955	0.864
11.8355	0.865
11.8755	0.865
11.9154	0.875
11.9554	0.864
11.9954	0.867
12.0354	0.86
12.0754	0.86
12.1153	0.869
12.1553	0.849
12.1953	0.847
12.2353	0.852
12.2753	0.847
12.3152	0.847
12.3552	0.829
12.3952	0.839
12.4352	0.826
12.4752	0.813
12.5152	0.823
12.5551	0.816
12.5951	0.805
12.6351	0.788
12.6751	0.775
12.7151	0.785
12.755	0.775
12.795	0.769
12.835	0.738
12.875	0.756
12.915	0.751
12.9549	0.746
12.9949	0.746
13.0349	0.725
13.0749	0.721
13.1149	0.703
13.1549	0.702
13.1948	0.695
13.2348	0.682
13.2748	0.682
13.3148	0.685
13.3548	0.695
13.3947	0.695
13.4347	0.716
13.4747	0.728
13.5147	0.746
13.5547	0.761
13.5946	0.785
13.6346	0.782
13.6746	0.779
13.7146	0.793
13.7546	0.774
13.7946	0.774
13.8345	0.78
13.8745	0.777
13.9145	0.749
13.9545	0.738
13.9945	0.733
14.0344	0.707
14.0744	0.692
14.1144	0.68
14.1544	0.675
14.1944	0.667
14.2343	0.643
14.2743	0.638
14.3143	0.617
14.3543	0.607
14.3943	0.602
14.4343	0.594
14.4742	0.599
14.5142	0.597
14.5542	0.592
14.5942	0.597
14.6342	0.603
14.6741	0.615
14.7141	0.607
14.7541	0.63
14.7941	0.631
14.8341	0.633
14.874	0.644
14.914	0.656
14.954	0.654
14.994	0.661
15.034	0.682
15.074	0.684
15.1139	0.692
15.1539	0.698
15.1939	0.702
15.2339	0.708
15.2739	0.707
15.3138	0.716
15.3538	0.725
15.3938	0.733
15.4338	0.728
15.4738	0.729
15.5137	0.738
15.5537	0.729
15.5937	0.731
15.6337	0.738
15.6737	0.713
