Infrared Spectrum: 3,4-DICHLOROBENZOIC ACID,4-TOLYL ESTER
Formula: C14 H10 Cl2 O2
CAS: 92153-13-4
State: SOLUTION (10% IN CCl4 FOR 5000-1350 CM^-^1, 10% IN CS2 FOR 1350-625 CM^-^1)
Class: COBLENTZ
Instrument: Not specified, most likely a prism, grating, or hybrid spectrometer.
Sampling: TRANSMISSION
Path length: 0.01 CM, 0.01 CM
Resolution: 4
Origin: DOW CHEMICAL COMPANY
MICROMETERS	TRANSMITTANCE
2.035	0.853
2.07414	0.853
2.11327	0.85
2.15241	0.85
2.19154	0.85
2.23068	0.852
2.26982	0.852
2.30895	0.852
2.34809	0.855
2.38722	0.86
2.42636	0.865
2.4655	0.871
2.50463	0.878
2.54377	0.873
2.5829	0.868
2.62204	0.868
2.66118	0.869
2.70031	0.866
2.73945	0.866
2.77858	0.856
2.81772	0.847
2.85686	0.834
2.89599	0.83
2.93513	0.843
2.97426	0.847
3.0134	0.847
3.05254	0.842
3.09167	0.848
3.13081	0.848
3.16994	0.839
3.20908	0.806
3.24822	0.778
3.28735	0.739
3.32649	0.772
3.36563	0.751
3.40476	0.739
3.4439	0.793
3.48303	0.804
3.52217	0.869
3.56131	0.878
3.60044	0.881
3.63958	0.876
3.67871	0.884
3.71785	0.889
3.75699	0.887
3.79612	0.887
3.83526	0.886
3.87439	0.876
3.91353	0.882
3.95267	0.889
3.9918	0.891
4.03094	0.894
4.07007	0.891
4.10921	0.889
4.14835	0.882
4.18748	0.881
4.22662	0.86
4.26575	0.855
4.30489	0.873
4.34403	0.874
4.38316	0.882
4.4223	0.894
4.46143	0.899
4.50057	0.899
4.53971	0.897
4.57884	0.891
4.61798	0.884
4.65711	0.889
4.69625	0.891
4.73539	0.891
4.77452	0.895
4.81366	0.891
4.85279	0.882
4.89193	0.871
4.93107	0.882
4.9702	0.873
5.00934	0.887
5.04847	0.873
5.08761	0.881
5.12675	0.876
5.16588	0.866
5.20502	0.861
5.24415	0.869
5.28329	0.827
5.32243	0.873
5.36156	0.866
5.4007	0.866
5.43983	0.855
5.47897	0.819
5.51811	0.804
5.55724	0.791
5.59638	0.769
5.63551	0.658
5.67465	0.408
5.71379	0.105
5.75292	0.146
5.79206	0.58
5.83119	0.72
5.87033	0.78
5.90947	0.824
5.9486	0.817
5.98774	0.811
6.02688	0.819
6.06601	0.821
6.10515	0.796
6.14428	0.759
6.18342	0.671
6.22256	0.51
6.26169	0.331
6.30083	0.437
6.33996	0.482
6.3791	0.414
6.41824	0.414
6.45737	0.45
6.49651	0.531
6.53564	0.549
6.57478	0.443
6.61392	0.304
6.65305	0.476
6.69219	0.712
6.73132	0.655
6.77046	0.424
6.8096	0.508
6.84873	0.66
6.88787	0.691
6.927	0.725
6.96614	0.747
7.00528	0.747
7.04441	0.738
7.08355	0.715
7.12268	0.673
7.16182	0.544
7.20096	0.279
7.24009	0.562
7.27923	0.78
7.31836	0.809
7.3575	0.817
7.39664	0.817
7.43577	0.801
7.47491	0.785
7.51404	0.746
7.55318	0.676
7.59232	0.637
7.63145	0.596
7.67059	0.494
7.70972	0.31
7.74886	0.112
7.788	0.089
7.82713	0.032
7.86627	0.045
7.9054	0.266
7.94454	0.452
7.98368	0.338
8.02281	0.03
8.06195	0.039
8.10108	0.039
8.14022	0.213
8.17936	0.343
8.21849	0.26
8.25763	0.159
8.29676	0.022
8.3359	0.019
8.37504	0.118
8.41417	0.426
8.45331	0.554
8.49244	0.495
8.53158	0.221
8.57072	0.284
8.60985	0.642
8.64899	0.7
8.68813	0.661
8.72726	0.583
8.7664	0.517
8.80553	0.53
8.84467	0.541
8.88381	0.596
8.92294	0.671
8.96208	0.676
9.00121	0.663
9.04035	0.604
9.07949	0.508
9.11862	0.321
9.15776	0.125
9.19689	0.143
9.23603	0.105
9.27517	0.06
9.3143	0.247
9.35344	0.534
9.39257	0.658
9.43171	0.718
9.47085	0.725
9.50998	0.702
9.54912	0.655
9.58825	0.523
9.62739	0.25
9.66653	0.258
9.70566	0.593
9.7448	0.609
9.78393	0.45
9.82307	0.655
9.86221	0.813
9.90134	0.852
9.94048	0.873
9.97961	0.876
10.0188	0.887
10.0579	0.889
10.097	0.892
10.1362	0.892
10.1753	0.889
10.2144	0.887
10.2536	0.879
10.2927	0.879
10.3318	0.874
10.371	0.873
10.4101	0.871
10.4492	0.869
10.4884	0.874
10.5275	0.874
10.5667	0.873
10.6058	0.84
10.6449	0.777
10.6841	0.756
10.7232	0.83
10.7623	0.843
10.8015	0.847
10.8406	0.835
10.8797	0.814
10.9189	0.765
10.958	0.666
10.9972	0.59
11.0363	0.57
11.0754	0.541
11.1146	0.59
11.1537	0.606
11.1928	0.533
11.232	0.408
11.2711	0.427
11.3102	0.557
11.3494	0.619
11.3885	0.642
11.4276	0.66
11.4668	0.661
11.5059	0.66
11.5451	0.65
11.5842	0.634
11.6233	0.603
11.6625	0.573
11.7016	0.528
11.7407	0.461
11.7799	0.442
11.819	0.476
11.8581	0.533
11.8973	0.52
11.9364	0.452
11.9756	0.413
12.0147	0.417
12.0538	0.429
12.093	0.43
12.1321	0.439
12.1712	0.43
12.2104	0.378
12.2495	0.32
12.2886	0.356
12.3278	0.478
12.3669	0.59
12.406	0.645
12.4452	0.682
12.4843	0.695
12.5235	0.7
12.5626	0.702
12.6017	0.692
12.6409	0.673
12.68	0.637
12.7191	0.575
12.7583	0.486
12.7974	0.395
12.8365	0.38
12.8757	0.471
12.9148	0.572
12.954	0.632
12.9931	0.674
13.0322	0.681
13.0714	0.665
13.1105	0.637
13.1496	0.573
13.1888	0.471
13.2279	0.321
13.267	0.144
13.3062	0.097
13.3453	0.239
13.3844	0.426
13.4236	0.577
13.4627	0.63
13.5019	0.663
13.541	0.671
13.5801	0.661
13.6193	0.627
13.6584	0.621
13.6975	0.681
13.7367	0.707
13.7758	0.721
13.8149	0.726
13.8541	0.73
13.8932	0.73
13.9324	0.728
13.9715	0.723
14.0106	0.72
14.0498	0.712
14.0889	0.705
14.128	0.699
14.1672	0.687
14.2063	0.673
14.2454	0.652
14.2846	0.63
14.3237	0.606
14.3628	0.604
14.402	0.604
14.4411	0.6
14.4803	0.588
14.5194	0.585
14.5585	0.585
14.5977	0.582
14.6368	0.559
14.6759	0.51
14.7151	0.435
14.7542	0.382
14.7933	0.375
14.8325	0.411
14.8716	0.445
14.9108	0.471
14.9499	0.512
14.989	0.536
15.0282	0.534
15.0673	0.526
15.1064	0.517
15.1456	0.507
15.1847	0.497
15.2238	0.487
15.263	0.481
15.3021	0.473
15.3413	0.465
15.3804	0.461
15.4195	0.456
15.4587	0.45
15.4978	0.442
15.5369	0.434
15.5761	0.427
15.6152	0.419
15.6543	0.413
15.6935	0.404
15.7326	0.398
15.7717	0.393
15.8109	0.388
15.85	0.39
15.8892	0.395
