Infrared Spectrum: 2,4-DICHLOROBENZOIC ACID, 4-TOLYL ESTER
Formula: C14 H10 Cl2 O2
CAS: 92153-11-2
State: SOLUTION (10% IN CCl4 FOR 5000-1350 CM^-^1, 10% IN CS2 FOR 1350-625 CM^-^1)
Class: COBLENTZ
Instrument: Not specified, most likely a prism, grating, or hybrid spectrometer.
Sampling: TRANSMISSION
Path length: 0.01 CM, 0.01 CM
Resolution: 4
Origin: DOW CHEMICAL COMPANY
MICROMETERS	TRANSMITTANCE
2.04	0.855
2.0792	0.859
2.11839	0.863
2.15759	0.864
2.19678	0.868
2.23598	0.869
2.27517	0.871
2.31437	0.871
2.35356	0.872
2.39276	0.874
2.43195	0.876
2.47115	0.882
2.51034	0.882
2.54954	0.881
2.58874	0.876
2.62793	0.874
2.66713	0.881
2.70632	0.877
2.74552	0.872
2.78471	0.868
2.82391	0.863
2.8631	0.845
2.9023	0.843
2.94149	0.853
2.98069	0.859
3.01988	0.861
3.05908	0.859
3.09828	0.856
3.13747	0.855
3.17667	0.84
3.21586	0.814
3.25506	0.791
3.29425	0.741
3.33345	0.778
3.37264	0.75
3.41184	0.741
3.45103	0.801
3.49023	0.833
3.52942	0.879
3.56862	0.887
3.60782	0.889
3.64701	0.884
3.68621	0.889
3.7254	0.894
3.7646	0.897
3.80379	0.899
3.84299	0.897
3.88218	0.892
3.92138	0.895
3.96057	0.899
3.99977	0.9
4.03896	0.903
4.07816	0.903
4.11736	0.902
4.15655	0.895
4.19575	0.884
4.23494	0.866
4.27414	0.861
4.31333	0.879
4.35253	0.881
4.39172	0.889
4.43092	0.903
4.47011	0.912
4.50931	0.91
4.5485	0.912
4.5877	0.907
4.6269	0.908
4.66609	0.902
4.70529	0.899
4.74448	0.9
4.78368	0.907
4.82287	0.889
4.86207	0.899
4.90126	0.884
4.94046	0.892
4.97965	0.887
5.01885	0.889
5.05804	0.892
5.09724	0.889
5.13644	0.885
5.17563	0.876
5.21483	0.863
5.25402	0.864
5.29322	0.838
5.33241	0.887
5.37161	0.882
5.4108	0.869
5.45	0.853
5.48919	0.838
5.52839	0.819
5.56758	0.741
5.60678	0.628
5.64598	0.415
5.68517	0.084
5.72437	0.094
5.76356	0.263
5.80276	0.488
5.84195	0.706
5.88115	0.796
5.92034	0.812
5.95954	0.82
5.99873	0.828
6.03793	0.82
6.07712	0.812
6.11632	0.796
6.15552	0.734
6.19471	0.596
6.23391	0.376
6.2731	0.099
6.3123	0.312
6.35149	0.459
6.39069	0.389
6.42988	0.348
6.46908	0.434
6.50827	0.524
6.54747	0.503
6.58666	0.379
6.62586	0.28
6.66506	0.599
6.70425	0.672
6.74345	0.539
6.78264	0.473
6.82184	0.635
6.86103	0.672
6.90023	0.685
6.93942	0.742
6.97862	0.768
7.01781	0.77
7.05701	0.765
7.0962	0.749
7.1354	0.7
7.1746	0.563
7.21379	0.372
7.25299	0.372
7.29218	0.745
7.33138	0.819
7.37057	0.83
7.40977	0.838
7.44896	0.83
7.48816	0.812
7.52735	0.781
7.56655	0.749
7.60574	0.688
7.64494	0.609
7.68413	0.482
7.72333	0.293
7.76253	0.162
7.80172	0.063
7.84092	0.074
7.88011	0.184
7.91931	0.258
7.9585	0.447
7.9977	0.304
8.03689	0.061
8.07609	0.04
8.11528	0.135
8.15448	0.348
8.19367	0.418
8.23287	0.348
8.27207	0.2
8.31126	0.024
8.35046	0.034
8.38965	0.184
8.42885	0.423
8.46804	0.589
8.50724	0.488
8.54643	0.231
8.58563	0.291
8.62482	0.579
8.66402	0.5
8.70321	0.399
8.74241	0.465
8.78161	0.61
8.8208	0.684
8.86	0.654
8.89919	0.61
8.93839	0.539
8.97758	0.423
9.01678	0.197
9.05597	0.099
9.09517	0.138
9.13436	0.144
9.17356	0.066
9.21275	0.203
9.25195	0.543
9.29115	0.654
9.33034	0.7
9.36954	0.729
9.40873	0.747
9.44793	0.729
9.48712	0.659
9.52632	0.506
9.56551	0.236
9.60471	0.058
9.6439	0.05
9.6831	0.291
9.72229	0.566
9.76149	0.517
9.80069	0.413
9.83988	0.714
9.87908	0.802
9.91827	0.85
9.95747	0.869
9.99666	0.881
10.0359	0.885
10.0751	0.897
10.1142	0.902
10.1534	0.908
10.1926	0.908
10.2318	0.902
10.271	0.902
10.3102	0.892
10.3494	0.884
10.3886	0.876
10.4278	0.868
10.467	0.872
10.5062	0.881
10.5454	0.882
10.5846	0.876
10.6238	0.84
10.663	0.76
10.7022	0.771
10.7414	0.853
10.7806	0.874
10.8198	0.879
10.859	0.876
10.8982	0.872
10.9374	0.868
10.9765	0.864
11.0157	0.853
11.0549	0.84
11.0941	0.825
11.1333	0.801
11.1725	0.76
11.2117	0.71
11.2509	0.648
11.2901	0.552
11.3293	0.452
11.3685	0.33
11.4077	0.206
11.4469	0.138
11.4861	0.195
11.5253	0.371
11.5645	0.49
11.6037	0.555
11.6429	0.576
11.6821	0.584
11.7213	0.587
11.7605	0.591
11.7997	0.594
11.8388	0.599
11.878	0.589
11.9172	0.56
11.9564	0.5
11.9956	0.413
12.0348	0.338
12.074	0.324
12.1132	0.348
12.1524	0.377
12.1916	0.394
12.2308	0.382
12.27	0.322
12.3092	0.311
12.3484	0.431
12.3876	0.552
12.4268	0.596
12.466	0.609
12.5052	0.602
12.5444	0.581
12.5836	0.547
12.6228	0.477
12.6619	0.395
12.7011	0.315
12.7403	0.312
12.7795	0.421
12.8187	0.568
12.8579	0.63
12.8971	0.662
12.9363	0.653
12.9755	0.615
13.0147	0.506
13.0539	0.395
13.0931	0.27
13.1323	0.32
13.1715	0.496
13.2107	0.641
13.2499	0.685
13.2891	0.7
13.3283	0.703
13.3675	0.674
13.4067	0.64
13.4459	0.636
13.4851	0.697
13.5242	0.739
13.5634	0.755
13.6026	0.767
13.6418	0.768
13.681	0.771
13.7202	0.768
13.7594	0.765
13.7986	0.762
13.8378	0.758
13.877	0.754
13.9162	0.752
13.9554	0.749
13.9946	0.744
14.0338	0.737
14.073	0.732
14.1122	0.721
14.1514	0.713
14.1906	0.705
14.2298	0.687
14.269	0.671
14.3082	0.653
14.3473	0.648
14.3865	0.64
14.4257	0.62
14.4649	0.592
14.5041	0.57
14.5433	0.54
14.5825	0.514
14.6217	0.48
14.6609	0.462
14.7001	0.456
14.7393	0.46
14.7785	0.47
14.8177	0.473
14.8569	0.47
14.8961	0.464
14.9353	0.485
14.9745	0.527
15.0137	0.537
15.0529	0.529
15.0921	0.521
15.1313	0.514
15.1705	0.508
15.2096	0.5
15.2488	0.49
15.288	0.482
15.3272	0.477
15.3664	0.472
15.4056	0.465
15.4448	0.46
15.484	0.451
15.5232	0.441
15.5624	0.434
15.6016	0.428
15.6408	0.423
15.68	0.416
15.7192	0.408
15.7584	0.405
15.7976	0.399
15.8368	0.395
15.876	0.402
