Infrared Spectrum: 2',4'-DICHLORO-2-HYDROXY-5-METHYLBENZOPHENONE
Formula: C14 H10 Cl2 O2
CAS: 92153-14-5
State: SOLUTION (10% IN CCl4 FOR 5000-1350 CM^-^1, 10% IN CS2 FOR 1350-625 CM^-^1)
Class: COBLENTZ
Instrument: Not specified, most likely a prism, grating, or hybrid spectrometer.
Sampling: TRANSMISSION
Path length: 0.01 CM, 0.01 CM
Resolution: 4
Origin: DOW CHEMICAL COMPANY
MICROMETERS	TRANSMITTANCE
2.028	0.845
2.06716	0.849
2.10631	0.849
2.14547	0.851
2.18462	0.851
2.22378	0.853
2.26293	0.853
2.30209	0.849
2.34124	0.851
2.3804	0.858
2.41956	0.864
2.45871	0.871
2.49787	0.867
2.53702	0.871
2.57618	0.871
2.61533	0.871
2.65449	0.869
2.69364	0.867
2.7328	0.866
2.77196	0.862
2.81111	0.856
2.85027	0.848
2.88942	0.835
2.92858	0.822
2.96773	0.799
3.00689	0.766
3.04604	0.735
3.0852	0.699
3.12436	0.672
3.16351	0.65
3.20267	0.634
3.24182	0.61
3.28098	0.597
3.32013	0.641
3.35929	0.672
3.39845	0.65
3.4376	0.729
3.47676	0.742
3.51591	0.8
3.55507	0.815
3.59422	0.822
3.63338	0.825
3.67253	0.83
3.71169	0.838
3.75085	0.846
3.79	0.853
3.82916	0.854
3.86831	0.867
3.90747	0.867
3.94662	0.871
3.98578	0.872
4.02493	0.879
4.06409	0.879
4.10325	0.877
4.1424	0.88
4.18156	0.872
4.22071	0.858
4.25987	0.854
4.29902	0.867
4.33818	0.869
4.37733	0.872
4.41649	0.885
4.45565	0.895
4.4948	0.898
4.53396	0.895
4.57311	0.897
4.61227	0.893
4.65142	0.898
4.69058	0.898
4.72973	0.897
4.76889	0.889
4.80805	0.885
4.8472	0.892
4.88636	0.892
4.92551	0.884
4.96467	0.882
5.00382	0.882
5.04298	0.89
5.08213	0.889
5.12129	0.885
5.16045	0.872
5.1996	0.858
5.23876	0.871
5.27791	0.866
5.31707	0.877
5.35622	0.876
5.39538	0.867
5.43454	0.879
5.47369	0.871
5.51285	0.88
5.552	0.871
5.59116	0.854
5.63031	0.827
5.66947	0.841
5.70862	0.828
5.74778	0.818
5.78694	0.838
5.82609	0.831
5.86525	0.828
5.9044	0.784
5.94356	0.703
5.98271	0.631
6.02187	0.525
6.06102	0.261
6.10018	0.042
6.13934	0.119
6.17849	0.148
6.21765	0.249
6.2568	0.101
6.29596	0.117
6.33511	0.329
6.37427	0.342
6.41342	0.27
6.45258	0.319
6.49174	0.425
6.53089	0.477
6.57005	0.517
6.6092	0.499
6.64836	0.401
6.68751	0.231
6.72667	0.047
6.76582	0.212
6.80498	0.355
6.84414	0.471
6.88329	0.559
6.92245	0.598
6.9616	0.616
7.00076	0.628
7.03991	0.579
7.07907	0.51
7.11822	0.499
7.15738	0.468
7.19654	0.381
7.23569	0.357
7.27485	0.347
7.314	0.471
7.35316	0.43
7.39231	0.21
7.43147	0.086
7.47063	0.112
7.50978	0.23
7.54894	0.396
7.58809	0.492
7.62725	0.321
7.6664	0.112
7.70556	0.391
7.74471	0.619
7.78387	0.629
7.82303	0.588
7.86218	0.533
7.90134	0.399
7.94049	0.138
7.97965	0.092
8.0188	0.125
8.05796	0.292
8.09711	0.331
8.13627	0.21
8.17543	0.06
8.21458	0.119
8.25374	0.19
8.29289	0.404
8.33205	0.598
8.3712	0.66
8.41036	0.703
8.44951	0.725
8.48867	0.738
8.52783	0.743
8.56698	0.748
8.60614	0.747
8.64529	0.712
8.68445	0.58
8.7236	0.342
8.76276	0.141
8.80191	0.375
8.84107	0.551
8.88023	0.621
8.91938	0.69
8.95854	0.629
8.99769	0.489
9.03685	0.285
9.076	0.352
9.11516	0.601
9.15431	0.742
9.19347	0.768
9.23263	0.756
9.27178	0.752
9.31094	0.756
9.35009	0.753
9.38925	0.688
9.4284	0.5
9.46756	0.456
9.50672	0.73
9.54587	0.758
9.58503	0.778
9.62418	0.8
9.66334	0.818
9.70249	0.823
9.74165	0.823
9.7808	0.83
9.81996	0.84
9.85912	0.846
9.89827	0.851
9.93743	0.861
9.97658	0.864
10.0157	0.862
10.0549	0.862
10.094	0.851
10.1332	0.84
10.1724	0.828
10.2115	0.812
10.2507	0.781
10.2898	0.725
10.329	0.595
10.3681	0.389
10.4073	0.141
10.4464	0.29
10.4856	0.481
10.5248	0.489
10.5639	0.539
10.6031	0.722
10.6422	0.768
10.6814	0.787
10.7205	0.805
10.7597	0.809
10.7988	0.809
10.838	0.807
10.8772	0.804
10.9163	0.8
10.9555	0.799
10.9946	0.791
11.0338	0.783
11.0729	0.771
11.1121	0.758
11.1512	0.743
11.1904	0.716
11.2296	0.668
11.2687	0.639
11.3079	0.611
11.347	0.566
11.3862	0.499
11.4253	0.314
11.4645	0.12
11.5036	0.061
11.5428	0.181
11.582	0.324
11.6211	0.42
11.6603	0.482
11.6994	0.541
11.7386	0.577
11.7777	0.593
11.8169	0.606
11.856	0.61
11.8952	0.588
11.9344	0.541
11.9735	0.445
12.0127	0.234
12.0518	0.07
12.091	0.05
12.1301	0.22
12.1693	0.38
12.2084	0.492
12.2476	0.561
12.2868	0.579
12.3259	0.582
12.3651	0.577
12.4042	0.557
12.4434	0.525
12.4825	0.466
12.5217	0.331
12.5609	0.177
12.6	0.119
12.6392	0.109
12.6783	0.141
12.7175	0.205
12.7566	0.319
12.7958	0.424
12.8349	0.53
12.8741	0.582
12.9133	0.61
12.9524	0.624
12.9916	0.631
13.0307	0.629
13.0699	0.619
13.109	0.605
13.1482	0.59
13.1873	0.574
13.2265	0.549
13.2657	0.52
13.3048	0.492
13.344	0.46
13.3831	0.422
13.4223	0.386
13.4614	0.35
13.5006	0.326
13.5397	0.309
13.5789	0.298
13.6181	0.295
13.6572	0.296
13.6964	0.298
13.7355	0.3
13.7747	0.306
13.8138	0.323
13.853	0.34
13.8921	0.368
13.9313	0.389
13.9705	0.417
14.0096	0.438
14.0488	0.455
14.0879	0.477
14.1271	0.489
14.1662	0.502
14.2054	0.507
14.2445	0.51
14.2837	0.51
14.3229	0.508
14.362	0.508
14.4012	0.502
14.4403	0.489
14.4795	0.45
14.5186	0.412
14.5578	0.414
14.5969	0.445
14.6361	0.489
14.6753	0.508
14.7144	0.512
14.7536	0.502
14.7927	0.491
14.8319	0.469
14.871	0.43
14.9102	0.396
14.9493	0.38
14.9885	0.402
15.0277	0.438
15.0668	0.453
15.106	0.461
15.1451	0.461
15.1843	0.456
15.2234	0.451
15.2626	0.445
15.3017	0.44
15.3409	0.435
15.3801	0.432
15.4192	0.429
15.4584	0.422
15.4975	0.417
15.5367	0.412
15.5758	0.407
15.615	0.402
15.6541	0.396
15.6933	0.389
15.7325	0.381
15.7716	0.376
15.8108	0.368
15.8499	0.367
15.8891	0.375
