Infrared Spectrum: 3',4'-DICHLORO-2-HYDROXY-5-METHYLBENZOPHENONE
Formula: C14 H10 Cl2 O2
CAS: 92153-17-8
State: SOLUTION (10% IN CCl4 FOR 5000-1350 CM^-^1, 10% IN CS2 FOR 1350-625 CM^-^1)
Class: COBLENTZ
Instrument: Not specified, most likely a prism, grating, or hybrid spectrometer.
Sampling: TRANSMISSION
Path length: 0.01 CM, 0.01 CM
Resolution: 4
Origin: DOW CHEMICAL COMPANY
MICROMETERS	TRANSMITTANCE
2.035	0.845
2.07414	0.845
2.11327	0.848
2.15241	0.848
2.19154	0.848
2.23068	0.848
2.26981	0.845
2.30895	0.849
2.34808	0.853
2.38722	0.856
2.42635	0.859
2.46549	0.866
2.50462	0.871
2.54376	0.866
2.58289	0.864
2.62203	0.864
2.66116	0.864
2.7003	0.861
2.73943	0.859
2.77857	0.853
2.8177	0.848
2.85684	0.831
2.89597	0.818
2.93511	0.797
2.97425	0.765
3.01338	0.738
3.05252	0.707
3.09165	0.681
3.13079	0.667
3.16992	0.662
3.20906	0.652
3.24819	0.632
3.28733	0.611
3.32646	0.663
3.3656	0.655
3.40473	0.65
3.44387	0.734
3.483	0.761
3.52214	0.804
3.56127	0.81
3.60041	0.822
3.63954	0.82
3.67868	0.83
3.71781	0.84
3.75695	0.851
3.79608	0.848
3.83522	0.851
3.87435	0.874
3.91349	0.849
3.95263	0.871
3.99176	0.876
4.0309	0.879
4.07003	0.876
4.10917	0.876
4.1483	0.877
4.18744	0.871
4.22657	0.859
4.26571	0.853
4.30484	0.871
4.34398	0.867
4.38311	0.877
4.42225	0.885
4.46138	0.893
4.50052	0.89
4.53965	0.893
4.57879	0.893
4.61792	0.898
4.65706	0.895
4.69619	0.892
4.73533	0.889
4.77446	0.882
4.8136	0.887
4.85274	0.89
4.89187	0.884
4.93101	0.88
4.97014	0.884
5.00928	0.884
5.04841	0.889
5.08755	0.889
5.12668	0.879
5.16582	0.864
5.20495	0.84
5.24409	0.879
5.28322	0.879
5.32236	0.879
5.36149	0.869
5.40063	0.874
5.43976	0.879
5.4789	0.871
5.51803	0.854
5.55717	0.828
5.5963	0.831
5.63544	0.849
5.67457	0.856
5.71371	0.854
5.75285	0.853
5.79198	0.848
5.83112	0.83
5.87025	0.818
5.90939	0.792
5.94852	0.75
5.98766	0.688
6.02679	0.598
6.06593	0.313
6.10506	0.071
6.1442	0.15
6.18333	0.127
6.22247	0.179
6.2616	0.115
6.30074	0.171
6.33987	0.349
6.37901	0.316
6.41814	0.203
6.45728	0.262
6.49641	0.442
6.53555	0.481
6.57468	0.504
6.61382	0.489
6.65295	0.401
6.69209	0.238
6.73123	0.066
6.77036	0.199
6.8095	0.368
6.84863	0.543
6.88777	0.57
6.9269	0.6
6.96604	0.632
7.00517	0.647
7.04431	0.601
7.08344	0.52
7.12258	0.445
7.16171	0.326
7.20085	0.23
7.23998	0.303
7.27912	0.484
7.31825	0.5
7.35739	0.376
7.39652	0.226
7.43566	0.091
7.47479	0.089
7.51393	0.233
7.55306	0.401
7.5922	0.466
7.63134	0.323
7.67047	0.101
7.70961	0.267
7.74874	0.543
7.78788	0.567
7.82701	0.525
7.86615	0.491
7.90528	0.318
7.94442	0.231
7.98355	0.203
8.02269	0.088
8.06182	0.163
8.10096	0.192
8.14009	0.102
8.17923	0.029
8.21836	0.044
8.2575	0.099
8.29663	0.236
8.33577	0.407
8.3749	0.544
8.41404	0.613
8.45317	0.663
8.49231	0.69
8.53145	0.711
8.57058	0.721
8.60972	0.707
8.64885	0.649
8.68799	0.538
8.72712	0.489
8.76626	0.396
8.80539	0.277
8.84453	0.44
8.88366	0.546
8.9228	0.502
8.96193	0.624
9.00107	0.76
9.0402	0.812
9.07934	0.831
9.11847	0.833
9.15761	0.838
9.19674	0.845
9.23588	0.84
9.27501	0.84
9.31415	0.841
9.35328	0.843
9.39242	0.838
9.43155	0.828
9.47069	0.812
9.50983	0.778
9.54896	0.729
9.5881	0.634
9.62723	0.358
9.66637	0.282
9.7055	0.647
9.74464	0.779
9.78377	0.822
9.82291	0.833
9.86204	0.831
9.90118	0.833
9.94031	0.836
9.97945	0.841
10.0186	0.836
10.0577	0.83
10.0969	0.81
10.136	0.758
10.1751	0.66
10.2143	0.515
10.2534	0.398
10.2925	0.357
10.3317	0.318
10.3708	0.448
10.4099	0.598
10.4491	0.716
10.4882	0.781
10.5273	0.822
10.5665	0.836
10.6056	0.845
10.6447	0.846
10.6839	0.845
10.723	0.843
10.7622	0.841
10.8013	0.84
10.8404	0.83
10.8796	0.823
10.9187	0.804
10.9578	0.783
10.997	0.753
11.0361	0.707
11.0752	0.657
11.1144	0.577
11.1535	0.522
11.1926	0.507
11.2318	0.513
11.2709	0.513
11.31	0.463
11.3492	0.473
11.3883	0.551
11.4275	0.6
11.4666	0.619
11.5057	0.629
11.5449	0.634
11.584	0.631
11.6231	0.628
11.6623	0.623
11.7014	0.628
11.7405	0.636
11.7797	0.647
11.8188	0.657
11.8579	0.641
11.8971	0.587
11.9362	0.495
11.9753	0.344
12.0145	0.213
12.0536	0.114
12.0927	0.141
12.1319	0.396
12.171	0.525
12.2102	0.584
12.2493	0.598
12.2884	0.6
12.3276	0.585
12.3667	0.569
12.4058	0.528
12.445	0.466
12.4841	0.402
12.5232	0.367
12.5624	0.324
12.6015	0.233
12.6406	0.141
12.6798	0.097
12.7189	0.135
12.758	0.233
12.7972	0.295
12.8363	0.285
12.8755	0.197
12.9146	0.135
12.9537	0.143
12.9929	0.238
13.032	0.407
13.0711	0.522
13.1103	0.577
13.1494	0.592
13.1885	0.59
13.2277	0.58
13.2668	0.569
13.3059	0.554
13.3451	0.541
13.3842	0.522
13.4233	0.508
13.4625	0.497
13.5016	0.486
13.5408	0.477
13.5799	0.473
13.619	0.469
13.6582	0.471
13.6973	0.473
13.7364	0.474
13.7756	0.481
13.8147	0.484
13.8538	0.479
13.893	0.446
13.9321	0.368
13.9712	0.323
14.0104	0.349
14.0495	0.411
14.0886	0.45
14.1278	0.469
14.1669	0.481
14.2061	0.487
14.2452	0.491
14.2843	0.484
14.3235	0.469
14.3626	0.442
14.4017	0.424
14.4409	0.419
14.48	0.422
14.5191	0.422
14.5583	0.376
14.5974	0.311
14.6365	0.233
14.6757	0.213
14.7148	0.272
14.7539	0.353
14.7931	0.406
14.8322	0.427
14.8713	0.427
14.9105	0.425
14.9496	0.445
14.9888	0.471
15.0279	0.479
15.067	0.481
15.1062	0.477
15.1453	0.469
15.1844	0.463
15.2236	0.453
15.2627	0.448
15.3018	0.442
15.341	0.438
15.3801	0.437
15.4192	0.438
15.4584	0.43
15.4975	0.419
15.5366	0.412
15.5758	0.407
15.6149	0.401
15.6541	0.396
15.6932	0.389
15.7323	0.384
15.7715	0.378
15.8106	0.371
15.8497	0.37
15.8889	0.376
15.928	0.383
