Infrared Spectrum: P-PHENYLAZO CARBANILIC ACID, METHYL ESTER
Formula: C14 H13 N3 O2
CAS: 92166-43-3
State: SOLID (1.7 mg / 200 mg KBr)
Melting point: 121.5-122 C
Class: COBLENTZ
Instrument: Not specified, most likely a grating spectrometer.
Sampling: TRANSMISSION
Resolution: 4
Origin: CITRUS EXPERIMENT STATION, UNIVERSITY OF FLORIDA (G. EDWARDS)
MICROMETERS	TRANSMITTANCE
2.027	0.768
2.06013	0.77
2.09326	0.78
2.12638	0.784
2.15951	0.786
2.19264	0.792
2.22577	0.792
2.2589	0.798
2.29203	0.801
2.32515	0.802
2.35828	0.805
2.39141	0.804
2.42454	0.809
2.45767	0.808
2.49079	0.817
2.52392	0.825
2.55705	0.83
2.59018	0.832
2.62331	0.828
2.65644	0.828
2.68956	0.826
2.72269	0.83
2.75582	0.828
2.78895	0.825
2.82208	0.824
2.8552	0.804
2.88833	0.773
2.92146	0.637
2.95459	0.584
2.98772	0.719
3.02085	0.796
3.05397	0.821
3.0871	0.836
3.12023	0.844
3.15336	0.848
3.18649	0.844
3.21961	0.822
3.25274	0.82
3.28587	0.832
3.319	0.821
3.35213	0.784
3.38526	0.8
3.41838	0.842
3.45151	0.828
3.48464	0.862
3.51777	0.885
3.5509	0.889
3.58403	0.888
3.61715	0.901
3.65028	0.902
3.68341	0.904
3.71654	0.908
3.74967	0.906
3.78279	0.908
3.81592	0.906
3.84905	0.905
3.88218	0.916
3.91531	0.917
3.94844	0.925
3.98156	0.922
4.01469	0.92
4.04782	0.92
4.08095	0.93
4.11408	0.93
4.1472	0.925
4.18033	0.925
4.21346	0.932
4.24659	0.934
4.27972	0.937
4.31285	0.94
4.34597	0.938
4.3791	0.94
4.41223	0.949
4.44536	0.948
4.47849	0.944
4.51161	0.949
4.54474	0.948
4.57787	0.944
4.611	0.95
4.64413	0.948
4.67726	0.952
4.71038	0.953
4.74351	0.956
4.77664	0.962
4.80977	0.965
4.8429	0.965
4.87602	0.962
4.90915	0.968
4.94228	0.961
4.97541	0.96
5.00854	0.961
5.04167	0.957
5.07479	0.966
5.10792	0.968
5.14105	0.952
5.17418	0.952
5.20731	0.964
5.24043	0.966
5.27356	0.977
5.30669	0.972
5.33982	0.982
5.37295	0.969
5.40608	0.977
5.4392	0.961
5.47233	0.953
5.50546	0.945
5.53859	0.953
5.57172	0.945
5.60484	0.937
5.63797	0.925
5.6711	0.854
5.70423	0.75
5.73736	0.511
5.77049	0.286
5.80361	0.274
5.83674	0.62
5.86987	0.739
5.903	0.816
5.93613	0.842
5.96925	0.885
6.00238	0.898
6.03551	0.912
6.06864	0.913
6.10177	0.906
6.1349	0.821
6.16802	0.712
6.20115	0.49
6.23428	0.464
6.26741	0.665
6.30054	0.78
6.33366	0.84
6.36679	0.728
6.39992	0.653
6.43305	0.498
6.46618	0.201
6.49931	0.202
6.53243	0.398
6.56556	0.539
6.59869	0.685
6.63182	0.723
6.66495	0.762
6.69808	0.757
6.7312	0.782
6.76433	0.794
6.79746	0.721
6.83059	0.804
6.86372	0.797
6.89684	0.548
6.92997	0.649
6.9631	0.817
6.99623	0.818
7.02936	0.633
7.06249	0.52
7.09561	0.72
7.12874	0.821
7.16187	0.844
7.195	0.848
7.22813	0.822
7.26125	0.85
7.29438	0.868
7.32751	0.893
7.36064	0.893
7.39377	0.89
7.4269	0.857
7.46002	0.824
7.49315	0.78
7.52628	0.739
7.55941	0.671
7.59254	0.501
7.62566	0.462
7.65879	0.701
7.69192	0.808
7.72505	0.852
7.75818	0.866
7.79131	0.864
7.82443	0.842
7.85756	0.801
7.89069	0.762
7.92382	0.735
7.95695	0.691
7.99007	0.561
8.0232	0.406
8.05633	0.255
8.08946	0.189
8.12259	0.243
8.15572	0.342
8.18884	0.484
8.22197	0.623
8.2551	0.703
8.28823	0.743
8.32136	0.75
8.35448	0.731
8.38761	0.7
8.42074	0.732
8.45387	0.802
8.487	0.837
8.52013	0.862
8.55325	0.864
8.58638	0.81
8.61951	0.661
8.65264	0.596
8.68577	0.731
8.71889	0.661
8.75202	0.727
8.78515	0.83
8.81828	0.865
8.85141	0.88
8.88454	0.89
8.91766	0.89
8.95079	0.884
8.98392	0.848
9.01705	0.776
9.05018	0.836
9.0833	0.892
9.11643	0.904
9.14956	0.902
9.18269	0.89
9.21582	0.87
9.24895	0.81
9.28207	0.671
9.3152	0.5
9.34833	0.476
9.38146	0.612
9.41459	0.728
9.44772	0.806
9.48084	0.854
9.51397	0.885
9.5471	0.892
9.58023	0.901
9.61336	0.904
9.64648	0.905
9.67961	0.91
9.71274	0.912
9.74587	0.912
9.779	0.864
9.81213	0.861
9.84525	0.893
9.87838	0.89
9.91151	0.922
9.94464	0.93
9.97777	0.921
10.0109	0.938
10.044	0.945
10.0772	0.949
10.1103	0.945
10.1434	0.952
10.1765	0.95
10.2097	0.952
10.2428	0.956
10.2759	0.957
10.309	0.956
10.3422	0.953
10.3753	0.94
10.4084	0.902
10.4416	0.906
10.4747	0.937
10.5078	0.936
10.5409	0.929
10.5741	0.929
10.6072	0.956
10.6403	0.962
10.6735	0.958
10.7066	0.954
10.7397	0.933
10.7728	0.898
10.806	0.864
10.8391	0.878
10.8722	0.912
10.9054	0.936
10.9385	0.948
10.9716	0.965
11.0047	0.968
11.0379	0.969
11.071	0.97
11.1041	0.97
11.1373	0.972
11.1704	0.972
11.2035	0.969
11.2366	0.973
11.2698	0.973
11.3029	0.97
11.336	0.972
11.3692	0.97
11.4023	0.969
11.4354	0.97
11.4685	0.969
11.5017	0.956
11.5348	0.952
11.5679	0.937
11.601	0.926
11.6342	0.912
11.6673	0.862
11.7004	0.809
11.7336	0.728
11.7667	0.652
11.7998	0.551
11.8329	0.487
11.8661	0.513
11.8992	0.541
11.9323	0.535
11.9655	0.568
11.9986	0.656
12.0317	0.75
12.0648	0.802
12.098	0.838
12.1311	0.865
12.1642	0.894
12.1974	0.91
12.2305	0.916
12.2636	0.926
12.2967	0.928
12.3299	0.925
12.363	0.913
12.3961	0.889
12.4293	0.904
12.4624	0.924
12.4955	0.936
12.5286	0.936
12.5618	0.933
12.5949	0.934
12.628	0.928
12.6611	0.922
12.6943	0.922
12.7274	0.92
12.7605	0.913
12.7937	0.901
12.8268	0.884
12.8599	0.858
12.893	0.786
12.9262	0.701
12.9593	0.636
12.9924	0.604
13.0256	0.563
13.0587	0.521
13.0918	0.564
13.1249	0.7
13.1581	0.793
13.1912	0.844
13.2243	0.872
13.2575	0.886
13.2906	0.909
13.3237	0.913
13.3568	0.916
13.39	0.914
13.4231	0.912
13.4562	0.912
13.4894	0.905
13.5225	0.892
13.5556	0.877
13.5887	0.853
13.6219	0.837
13.655	0.842
13.6881	0.878
13.7213	0.906
13.7544	0.913
13.7875	0.912
13.8206	0.906
13.8538	0.896
13.8869	0.881
13.92	0.848
13.9531	0.805
13.9863	0.737
14.0194	0.688
14.0525	0.705
14.0857	0.761
14.1188	0.821
14.1519	0.858
14.185	0.874
14.2182	0.876
14.2513	0.873
14.2844	0.865
14.3176	0.853
14.3507	0.84
14.3838	0.8
14.4169	0.741
14.4501	0.676
14.4832	0.611
14.5163	0.572
14.5495	0.581
14.5826	0.625
14.6157	0.681
14.6488	0.732
14.682	0.766
14.7151	0.784
14.7482	0.792
14.7814	0.797
14.8145	0.797
14.8476	0.794
14.8807	0.793
14.9139	0.789
14.947	0.781
14.9801	0.782
