Infrared Spectrum: 4-Phenoxyphenylacetonitrile
Formula: C 14 H 11 N O
CAS: 92163-15-0
State: gas
Origin: EPA-IR VAPOR PHASE LIBRARY
1/CM	ABSORBANCE
549.8	0.0013667
559.445	0.001584
569.09	0.001574
578.735	0.001594
588.38	0.0012585
598.025	0.0014263
607.67	0.0013846
617.315	0.0013541
626.96	0.0013696
636.605	0.0013255
646.251	0.001614
655.896	0.001854
665.541	0.002714
675.186	0.005344
684.831	0.012074
694.476	0.015014
704.121	0.008204
713.766	0.004694
723.411	0.004964
733.056	0.009154
742.701	0.012854
752.346	0.012614
761.991	0.011974
771.636	0.011504
781.281	0.009514
790.926	0.007684
800.571	0.007714
810.216	0.009424
819.861	0.011494
829.507	0.012664
839.152	0.011654
848.797	0.008744
858.442	0.010074
868.087	0.032554
877.732	0.015474
887.377	0.005034
897.022	0.004624
906.667	0.004654
916.312	0.003344
925.957	0.002054
935.602	0.001574
945.247	0.001534
954.892	0.0011786
964.537	0.0012495
974.182	0.0014414
983.827	0.0014324
993.472	0.0013424
1003.12	0.002174
1012.76	0.007304
1022.41	0.007384
1032.05	0.001874
1041.7	0.000903
1051.34	0.0013772
1060.99	0.002674
1070.63	0.003394
1080.28	0.002674
1089.92	0.002324
1099.57	0.003324
1109.21	0.003694
1118.86	0.002974
1128.5	0.002444
1138.15	0.003184
1147.79	0.005144
1157.44	0.010434
1167.08	0.024824
1176.73	0.015774
1186.37	0.013454
1196.02	0.016164
1205.66	0.018824
1215.31	0.027824
1224.95	0.053214
1234.6	0.123494
1244.24	0.248304
1253.89	0.133384
1263.53	0.044554
1273.18	0.026664
1282.82	0.018364
1292.47	0.014234
1302.11	0.011514
1311.76	0.009624
1321.4	0.009054
1331.05	0.007954
1340.69	0.006134
1350.34	0.004274
1359.98	0.003294
1369.63	0.002714
1379.27	0.002614
1388.92	0.002634
1398.56	0.002934
1408.21	0.003944
1417.85	0.006004
1427.5	0.011254
1437.14	0.007014
1446.79	0.006814
1456.43	0.009324
1466.08	0.014424
1475.73	0.025414
1485.37	0.092924
1495.02	0.108504
1504.66	0.085344
1514.31	0.065144
1523.95	0.020554
1533.6	0.010104
1543.24	0.006894
1552.89	0.006594
1562.53	0.008684
1572.18	0.016324
1581.82	0.034834
1591.47	0.050244
1601.11	0.030964
1610.76	0.013534
1620.4	0.006794
1630.05	0.004064
1639.69	0.003334
1649.34	0.002714
1658.98	0.002044
1668.63	0.001494
1678.27	0.0013073
1687.92	0.0012986
1697.56	0.0012927
1707.21	0.001484
1716.85	0.001554
1726.5	0.001754
1736.14	0.001614
1745.79	0.001534
1755.43	0.001864
1765.08	0.002424
1774.72	0.002174
1784.37	0.0014437
1794.01	0.0008881
1803.66	0.0008062
1813.3	0.0007613
1822.95	0.0008286
1832.59	0.0010697
1842.24	0.0013684
1851.88	0.001774
1861.53	0.001944
1871.17	0.002134
1880.82	0.002064
1890.46	0.002084
1900.11	0.002024
1909.75	0.001924
1919.4	0.001984
1929.04	0.002134
1938.69	0.002084
1948.33	0.001984
1957.98	0.001564
1967.62	0.001534
1977.27	0.001734
1986.91	0.001784
1996.56	0.001594
2006.2	0.001425
2015.85	0.0014271
2025.49	0.001774
2035.14	0.001894
2044.78	0.001664
2054.43	0.001474
2064.07	0.001644
2073.72	0.001684
2083.36	0.0012081
2093.01	0.0010508
2102.65	0.0008707
2112.3	0.0008213
2121.94	0.0006757
2131.59	0.00053472
2141.23	0.00053546
2150.88	0.0005564
2160.52	0.0004632
2170.17	0.0005864
2179.81	0.00049038
2189.46	0.0004864
2199.1	0.00053918
2208.75	0.0005752
2218.39	0.000665
2228.04	0.000792
2237.68	0.0008849
2247.33	0.0013048
2256.97	0.001554
2266.62	0.001156
2276.26	0.0009454
2285.91	0.0007675
2295.55	0.0007411
2305.2	0.0009943
2314.84	0.0010062
2324.49	0.0011812
2334.13	0.0011648
2343.78	0.0010875
2353.42	0.0010059
2363.07	0.0009357
2372.72	0.0011279
2382.36	0.0012495
2392.01	0.001524
2401.65	0.001944
2411.3	0.002314
2420.94	0.002054
2430.59	0.002084
2440.23	0.002424
2449.88	0.001964
2459.52	0.001564
2469.17	0.0013458
2478.81	0.0013203
2488.46	0.0011517
2498.1	0.0008988
2507.75	0.0009039
2517.39	0.0009421
2527.04	0.0008493
2536.68	0.0007986
2546.33	0.0010075
2555.97	0.0010623
2565.62	0.0010235
2575.26	0.0011143
2584.91	0.0009403
2594.55	0.0008828
2604.2	0.0008567
2613.84	0.0007617
2623.49	0.0007825
2633.13	0.000667
2642.78	0.0007249
2652.42	0.0006186
2662.07	0.0006463
2671.71	0.00068
2681.36	0.0006057
2691	0.0007334
2700.65	0.0007395
2710.29	0.000605
2719.94	0.0006486
2729.58	0.0008781
2739.23	0.0008123
2748.87	0.0008584
2758.52	0.0007818
2768.16	0.0006647
2777.81	0.0006347
2787.45	0.000718
2797.1	0.0006282
2806.74	0.0007457
2816.39	0.0008124
2826.03	0.0009336
2835.68	0.0012884
2845.32	0.0011722
2854.97	0.0009726
2864.61	0.0009274
2874.26	0.0007868
2883.9	0.0008497
2893.55	0.0008097
2903.19	0.001139
2912.84	0.001564
2922.48	0.002984
2932.13	0.003724
2941.77	0.002374
2951.42	0.001544
2961.06	0.0012084
2970.71	0.0011035
2980.35	0.0009865
2990	0.001524
2999.64	0.002554
3009.29	0.003584
3018.93	0.004794
3028.58	0.007424
3038.22	0.013414
3047.87	0.012844
3057.51	0.009004
3067.16	0.009214
3076.8	0.012704
3086.45	0.010694
3096.09	0.007284
3105.74	0.005084
3115.38	0.002774
3125.03	0.001544
3134.67	0.0009755
3144.32	0.0006828
3153.96	0.00054348
3163.61	0.0006084
3173.25	0.0007091
3182.9	0.0005832
3192.54	0.0005827
3202.19	0.0005453
3211.83	0.00045526
3221.48	0.0004006
3231.12	0.000302
3240.77	0.000101
3250.41	0.000253
3260.06	0.000324
3269.7	0.000206
3279.35	0.000293
3289	0.000135
3298.64	0.000163
3308.29	0.000166
3317.93	0.000276
3327.58	0.000209
3337.22	0.00013
3346.87	0.000113
3356.51	0.000191
3366.16	0.000247
3375.8	0
3385.45	0.000129
3395.09	0.000149
3404.74	0.000148
3414.38	0.000155
3424.03	0.000179
3433.67	3.1e-05
3443.32	1.3e-05
3452.96	0.000113
3462.61	0.00028
3472.25	0.000105
3481.9	0.000321
3491.54	0.000252
3501.19	0.00026
3510.83	0.000173
3520.48	0.000295
3530.12	0.000235
3539.77	0.000219
3549.41	0.000238
3559.06	9.6e-05
3568.7	0.000117
3578.35	0.000206
3587.99	0.000252
3597.64	0.0004234
3607.28	0.000199
3616.93	0.000279
3626.57	0.0003511
3636.22	0.0004315
3645.86	0.000281
3655.51	0.00026
3665.15	0.0005498
3674.8	0.00043681
3684.44	0.00052524
3694.09	0.00046409
3703.73	0.00049606
3713.38	0.00029
3723.02	0.0004331
3732.67	0.000209
3742.31	0.000125
3751.96	0.000211
3761.6	0.0004266
3771.25	0.0003523
3780.89	0.0003655
3790.54	0.00050926
3800.18	0.0004183
3809.83	0.00048176
3819.47	0.00045402
3829.12	0.000424
3838.76	0.000445838
3848.41	0.000450562
3858.05	0.0006794
3867.7	0.000266
3877.34	0.0005786
3886.99	0.0005578
3896.63	0.0006846
3906.28	0.00053807
3915.92	0.000549
3925.57	0.0004144
3935.21	0.00050886
3944.86	0.00047269
3954.5	0.000291
3964.15	0.0006064
3973.79	0.00045581
3983.44	0.000444387
3993.08	0.0003652
