Infrared Spectrum: 3-ETHOXY-8,8-DIMETHYL-2-OXA-BICYCLO[4.2.0]OCTAN-7-ONE
Formula: C11 H18 O3
CAS: 92188-81-3
State: SOLID (KBr PELLET)
Melting point: 55 C
Boiling point: 116 C AT 13 mmHg
Class: COBLENTZ
Instrument: Not specified, most likely a prism, grating, or hybrid spectrometer.
Sampling: TRANSMISSION
Resolution: 4
Origin: TENNESSEE EASTMAN COMPANY, RESEARCH LABORATORIES
MICROMETERS	TRANSMITTANCE
2.027	0.967
2.06784	0.96
2.10868	0.952
2.14951	0.948
2.19035	0.94
2.23119	0.91
2.27203	0.888
2.31287	0.886
2.3537	0.886
2.39454	0.886
2.43538	0.878
2.47622	0.875
2.51706	0.871
2.55789	0.863
2.59873	0.863
2.63957	0.863
2.68041	0.863
2.72125	0.861
2.76208	0.809
2.80292	0.763
2.84376	0.729
2.8846	0.722
2.92544	0.719
2.96627	0.75
3.00711	0.775
3.04795	0.789
3.08879	0.792
3.12963	0.796
3.17046	0.803
3.2113	0.801
3.25214	0.792
3.29298	0.765
3.33382	0.551
3.37465	0.212
3.41549	0.172
3.45633	0.39
3.49717	0.686
3.53801	0.782
3.57884	0.804
3.61968	0.823
3.66052	0.818
3.70136	0.821
3.7422	0.832
3.78303	0.835
3.82387	0.84
3.86471	0.849
3.90555	0.856
3.94639	0.861
3.98722	0.861
4.02806	0.851
4.0689	0.859
4.10974	0.859
4.15058	0.859
4.19141	0.863
4.23225	0.861
4.27309	0.864
4.31393	0.866
4.35477	0.875
4.3956	0.878
4.43644	0.876
4.47728	0.875
4.51812	0.875
4.55896	0.88
4.59979	0.883
4.64063	0.881
4.68147	0.883
4.72231	0.881
4.76315	0.881
4.80398	0.883
4.84482	0.878
4.88566	0.875
4.9265	0.875
4.96734	0.868
5.00817	0.878
5.04901	0.861
5.08985	0.861
5.13069	0.861
5.17153	0.845
5.21236	0.847
5.2532	0.847
5.29404	0.845
5.33488	0.833
5.37572	0.82
5.41655	0.801
5.45739	0.77
5.49823	0.664
5.53907	0.587
5.57991	0.26
5.62074	0.013
5.66158	0.267
5.70242	0.623
5.74326	0.731
5.7841	0.772
5.82493	0.823
5.86577	0.833
5.90661	0.856
5.94745	0.863
5.98829	0.875
6.02912	0.878
6.06996	0.875
6.1108	0.864
6.15164	0.863
6.19248	0.878
6.23331	0.89
6.27415	0.897
6.31499	0.904
6.35583	0.905
6.39667	0.907
6.4375	0.912
6.47834	0.91
6.51918	0.912
6.56002	0.905
6.60086	0.907
6.64169	0.893
6.68253	0.876
6.72337	0.78
6.76421	0.784
6.80505	0.484
6.84588	0.537
6.88672	0.52
6.92756	0.501
6.9684	0.763
7.00924	0.852
7.05007	0.864
7.09091	0.828
7.13175	0.803
7.17259	0.821
7.21343	0.553
7.25426	0.582
7.2951	0.554
7.33594	0.275
7.37678	0.559
7.41762	0.683
7.45845	0.782
7.49929	0.424
7.54013	0.748
7.58097	0.827
7.62181	0.763
7.66264	0.553
7.70348	0.804
7.74432	0.806
7.78516	0.72
7.826	0.63
7.86683	0.732
7.90767	0.787
7.94851	0.768
7.98935	0.416
8.03018	0.751
8.07102	0.792
8.11186	0.708
8.1527	0.342
8.19354	0.424
8.23437	0.662
8.27521	0.71
8.31605	0.53
8.35689	0.469
8.39773	0.621
8.43856	0.462
8.4794	0.219
8.52024	0.255
8.56108	0.498
8.60192	0.529
8.64275	0.448
8.68359	0.308
8.72443	0.162
8.76527	0.047
8.80611	0.203
8.84694	0.44
8.88778	0.577
8.92862	0.602
8.96946	0.464
9.0103	0.385
9.05113	0.315
9.09197	0.065
9.13281	0.159
9.17365	0.4
9.21449	0.558
9.25532	0.613
9.29616	0.573
9.337	0.333
9.37784	0.196
9.41868	0.261
9.45951	0.172
9.50035	0.039
9.54119	0.015
9.58203	0.022
9.62287	0.101
9.6637	0.244
9.70454	0.263
9.74538	0.101
9.78622	0.176
9.82706	0.368
9.86789	0.532
9.90873	0.623
9.94957	0.595
9.99041	0.426
10.0312	0.518
10.0721	0.623
10.1129	0.597
10.1538	0.416
10.1946	0.162
10.2354	0.049
10.2763	0.032
10.3171	0.157
10.358	0.33
10.3988	0.369
10.4396	0.301
10.4805	0.448
10.5213	0.582
10.5621	0.643
10.603	0.561
10.6438	0.393
10.6847	0.498
10.7255	0.674
10.7663	0.772
10.8072	0.813
10.848	0.837
10.8888	0.837
10.9297	0.777
10.9705	0.583
11.0114	0.198
11.0522	0.243
11.093	0.441
11.1339	0.614
11.1747	0.719
11.2155	0.748
11.2564	0.726
11.2972	0.743
11.3381	0.726
11.3789	0.589
11.4197	0.258
11.4606	0.217
11.5014	0.398
11.5423	0.578
11.5831	0.708
11.6239	0.703
11.6648	0.601
11.7056	0.698
11.7464	0.811
11.7873	0.878
11.8281	0.916
11.869	0.94
11.9098	0.955
11.9506	0.965
11.9915	0.972
12.0323	0.974
12.0731	0.974
12.114	0.976
12.1548	0.976
12.1957	0.965
12.2365	0.952
12.2773	0.933
12.3182	0.916
12.359	0.948
12.3999	0.967
12.4407	0.974
12.4815	0.976
12.5224	0.97
12.5632	0.931
12.604	0.934
12.6449	0.969
12.6857	0.981
12.7266	0.986
12.7674	0.991
12.8082	0.991
12.8491	0.972
12.8899	0.941
12.9307	0.934
12.9716	0.97
13.0124	0.986
13.0533	0.993
13.0941	0.996
13.1349	0.998
13.1758	1
13.2166	1
13.2574	1
13.2983	1
13.3391	1
13.38	0.998
13.4208	0.998
13.4616	0.996
13.5025	0.994
13.5433	0.993
13.5842	0.984
13.625	0.981
13.6658	0.972
13.7067	0.965
13.7475	0.965
13.7883	0.976
13.8292	0.981
13.87	0.984
13.9109	0.986
13.9517	0.989
13.9925	0.991
14.0334	0.989
14.0742	0.989
14.115	0.989
14.1559	0.989
14.1967	0.988
14.2376	0.986
14.2784	0.986
14.3192	0.981
14.3601	0.977
14.4009	0.974
14.4417	0.969
14.4826	0.96
14.5234	0.953
14.5643	0.95
14.6051	0.941
14.6459	0.931
14.6868	0.929
14.7276	0.922
14.7685	0.919
14.8093	0.919
14.8501	0.917
14.891	0.912
14.9318	0.9
14.9726	0.88
15.0135	0.851
15.0543	0.844
15.0952	0.844
15.136	0.844
15.1768	0.83
15.2177	0.82
15.2585	0.803
15.2993	0.796
15.3402	0.784
15.381	0.772
15.4219	0.763
15.4627	0.753
15.5035	0.746
15.5444	0.734
15.5852	0.729
15.6261	0.714
15.6669	0.703
15.7077	0.695
15.7486	0.688
15.7894	0.679
15.8302	0.672
15.8711	0.662
15.9119	0.66
15.9528	0.648
15.9936	0.643
