Infrared Spectrum: 9H-Purine, 6-Aziridinyl-9-Benzyl-
Formula: C14 H13 N5
CAS: 92193-48-1
State: SOLID (0.6 mg / 650 mg KBr DISC)
Class: COBLENTZ III
Instrument: PERKIN-ELMER 21 (GRATING)
Instrument parameters: FILTER CHANGE ABOUT 1090 CM^-^1
Sampling: TRANSMISSION
Resolution: 2
Origin: SOUTHERN RESEARCH INSTITUTE
1/CM	TRANSMITTANCE
603	0.8242
612.026	0.8235
621.053	0.8141
630.079	0.7763
639.106	0.6911
648.132	0.5066
657.159	0.856
666.185	0.8413
675.212	0.7864
684.238	0.7317
693.265	0.5899
702.291	0.7881
711.318	0.7713
720.344	0.6667
729.371	0.3877
738.397	0.561
747.424	0.8532
756.45	0.8303
765.477	0.7959
774.503	0.6477
783.53	0.7474
792.556	0.7854
801.583	0.6557
810.609	0.7289
819.636	0.5895
828.662	0.8118
837.689	0.6912
846.715	0.7767
855.742	0.8176
864.768	0.7942
873.795	0.7688
882.821	0.7241
891.848	0.709
900.874	0.7208
909.901	0.6399
918.927	0.7817
927.954	0.7548
936.98	0.7252
946.007	0.7148
955.033	0.6565
964.06	0.6326
973.086	0.7579
982.113	0.741
991.139	0.702
1000.17	0.6421
1009.19	0.4876
1018.22	0.4343
1027.25	0.6577
1036.27	0.6772
1045.3	0.7676
1054.32	0.7518
1063.35	0.7198
1072.38	0.6789
1081.4	0.7169
1090.43	0.7523
1099.46	0.6799
1108.48	0.6755
1117.51	0.664
1126.54	0.6448
1135.56	0.5836
1144.59	0.512
1153.62	0.5911
1162.64	0.6406
1171.67	0.5834
1180.7	0.5828
1189.72	0.5046
1198.75	0.6065
1207.78	0.5555
1216.8	0.5676
1225.83	0.4092
1234.85	0.4359
1243.88	0.7215
1252.91	0.6912
1261.93	0.5824
1270.96	0.6086
1279.99	0.5409
1289.01	0.5816
1298.04	0.6126
1307.07	0.5572
1316.09	0.4909
1325.12	0.3064
1334.15	0.3635
1343.17	0.5337
1352.2	0.2901
1361.23	0.2991
1370.25	0.5842
1379.28	0.5518
1388.3	0.5988
1397.33	0.6295
1406.36	0.5218
1415.38	0.4786
1424.41	0.6059
1433.44	0.4784
1442.46	0.4583
1451.49	0.2586
1460.52	0.2412
1469.54	0.4804
1478.57	0.7015
1487.6	0.6599
1496.62	0.5436
1505.65	0.7055
1514.68	0.7171
1523.7	0.6859
1532.73	0.6562
1541.76	0.5634
1550.78	0.4984
1559.81	0.361
1568.83	0.2491
1577.86	0.1015
1586.89	0.1288
1595.91	0.2063
1604.94	0.5475
1613.97	0.6652
1622.99	0.7104
1632.02	0.7644
1641.05	0.7901
1650.07	0.7931
1659.1	0.8121
1668.13	0.8114
1677.15	0.8102
1686.18	0.8117
1695.21	0.8219
1704.23	0.822
1713.26	0.8229
1722.29	0.8293
1731.31	0.8058
1740.34	0.7856
1749.36	0.7772
1758.39	0.7855
1767.42	0.8104
1776.44	0.8121
1785.47	0.81
1794.5	0.8064
1803.52	0.8091
1812.55	0.8097
1821.58	0.8078
1830.6	0.8024
1839.63	0.7986
1848.66	0.7916
1857.68	0.7917
1866.71	0.7959
1875.74	0.7947
1884.76	0.791
1893.79	0.7869
1902.82	0.7844
1911.84	0.785
1920.87	0.7812
1929.89	0.7762
1938.92	0.7712
1947.95	0.7683
1956.97	0.7718
1966	0.7748
1975.03	0.7705
1984.05	0.77
1993.08	0.7773
2002.11	0.7792
2011.13	0.7733
2020.16	0.7685
2029.19	0.7694
2038.21	0.7697
2047.24	0.7688
2056.27	0.7645
2065.29	0.7606
2074.32	0.7593
2083.35	0.7573
2092.37	0.7558
2101.4	0.7649
2110.42	0.7612
2119.45	0.7521
2128.48	0.7497
2137.5	0.7511
2146.53	0.7529
2155.56	0.7463
2164.58	0.7429
2173.61	0.7408
2182.64	0.7395
2191.66	0.7385
2200.69	0.7383
2209.72	0.7381
2218.74	0.7383
2227.77	0.7376
2236.8	0.7367
2245.82	0.7355
2254.85	0.7343
2263.87	0.7328
2272.9	0.7311
2281.93	0.7295
2290.95	0.7284
2299.98	0.7263
2309.01	0.726
2318.03	0.7353
2327.06	0.7421
2336.09	0.745
2345.11	0.7465
2354.14	0.7464
2363.17	0.7426
2372.19	0.7371
2381.22	0.7311
2390.25	0.7246
2399.27	0.7187
2408.3	0.7133
2417.33	0.7102
2426.35	0.7089
2435.38	0.7082
2444.4	0.7065
2453.43	0.7053
2462.46	0.7049
2471.48	0.7047
2480.51	0.7039
2489.54	0.7016
2498.56	0.6994
2507.59	0.6973
2516.62	0.6953
2525.64	0.6944
2534.67	0.6938
2543.7	0.6905
2552.72	0.6909
2561.75	0.6906
2570.78	0.6874
2579.8	0.6859
2588.83	0.6844
2597.86	0.683
2606.88	0.6821
2615.91	0.6814
2624.93	0.6806
2633.96	0.6794
2642.99	0.6801
2652.01	0.6839
2661.04	0.6831
2670.07	0.6781
2679.09	0.6743
2688.12	0.6787
2697.15	0.6804
2706.17	0.6724
2715.2	0.6687
2724.23	0.6619
2733.25	0.6619
2742.28	0.6662
2751.31	0.6632
2760.33	0.6632
2769.36	0.6634
2778.39	0.6596
2787.41	0.6544
2796.44	0.6575
2805.46	0.6584
2814.49	0.6592
2823.52	0.6473
2832.54	0.6471
2841.57	0.6484
2850.6	0.6477
2859.62	0.6461
2868.65	0.648
2877.68	0.6462
2886.7	0.6456
2895.73	0.6376
2904.76	0.6258
2913.78	0.62
2922.81	0.6182
2931.84	0.6217
2940.86	0.6216
2949.89	0.6211
2958.91	0.6159
2967.94	0.6076
2976.97	0.603
2985.99	0.5984
2995.02	0.5942
3004.05	0.5933
3013.07	0.5999
3022.1	0.5991
3031.13	0.5962
3040.15	0.5965
3049.18	0.6025
3058.21	0.6046
3067.23	0.5937
3076.26	0.5905
3085.29	0.5971
3094.31	0.6066
3103.34	0.619
3112.37	0.6318
3121.39	0.6452
3130.42	0.6492
3139.44	0.6437
3148.47	0.6364
3157.5	0.6293
3166.52	0.6258
3175.55	0.6243
3184.58	0.6238
3193.6	0.6216
3202.63	0.6215
3211.66	0.6154
3220.68	0.6112
3229.71	0.6108
3238.74	0.6108
3247.76	0.5956
3256.79	0.5912
3265.82	0.59
3274.84	0.5887
3283.87	0.5854
3292.9	0.5833
3301.92	0.581
3310.95	0.5758
3319.97	0.5702
3329	0.5653
3338.03	0.5616
3347.05	0.5556
3356.08	0.5476
3365.11	0.5382
3374.13	0.5277
3383.16	0.5163
3392.19	0.5116
3401.21	0.4985
3410.24	0.4903
3419.27	0.4841
3428.29	0.4815
3437.32	0.4805
3446.35	0.4811
3455.37	0.4822
3464.4	0.4848
3473.43	0.4895
3482.45	0.4962
3491.48	0.4987
3500.5	0.5018
3509.53	0.5061
3518.56	0.5114
3527.58	0.5169
3536.61	0.522
3545.64	0.5274
3554.66	0.5319
3563.69	0.5376
3572.72	0.5475
3581.74	0.5549
3590.77	0.561
3599.8	0.5692
3608.82	0.5763
3617.85	0.5816
3626.88	0.5874
3635.9	0.589
3644.93	0.5941
3653.95	0.6016
3662.98	0.6042
3672.01	0.6055
3681.03	0.6069
3690.06	0.6102
3699.09	0.6082
3708.11	0.6055
3717.14	0.6056
3726.17	0.6109
3735.19	0.6107
3744.22	0.6103
3753.25	0.6106
3762.27	0.6076
3771.3	0.6052
3780.33	0.6048
3789.35	0.6051
3798.38	0.6043
3807.41	0.6045
3816.43	0.6006
3825.46	0.6014
3834.48	0.6052
3843.51	0.6052
3852.54	0.6042
3861.56	0.6058
3870.59	0.6066
3879.62	0.5974
3888.64	0.596
3897.67	0.5974
3906.7	0.599
3915.72	0.6014
3924.75	0.595
3933.78	0.5975
3942.8	0.5903
3951.83	0.5836
3960.86	0.5902
3969.88	0.5886
3978.91	0.5872
3987.94	0.5919
3996.96	0.5801
4005.99	0.5672
