Infrared Spectrum: DI 2-ETHYL HEXYL 2-ETHYL SUBERATE
Formula: C26 H50 O4
CAS: 922-09-8
Class: COBLENTZ
Instrument: Not specified, most likely a prism, grating, or hybrid spectrometer.
Sampling: TRANSMISSION
Path length: 0.0026 CM
Resolution: 4
MICROMETERS	TRANSMITTANCE
2.028	0.918
2.06679	0.92
2.10559	0.899
2.14438	0.862
2.18318	0.853
2.22197	0.863
2.26077	0.876
2.29956	0.884
2.33836	0.884
2.37715	0.897
2.41595	0.907
2.45474	0.917
2.49353	0.918
2.53233	0.92
2.57112	0.926
2.60992	0.925
2.64871	0.925
2.68751	0.926
2.7263	0.928
2.7651	0.926
2.80389	0.896
2.84269	0.915
2.88148	0.928
2.92027	0.933
2.95907	0.93
2.99786	0.93
3.03666	0.915
3.07545	0.907
3.11425	0.902
3.15304	0.892
3.19184	0.865
3.23063	0.774
3.26943	0.436
3.30822	0.014
3.34701	0.022
3.38581	0.047
3.4246	0.051
3.4634	0.301
3.50219	0.707
3.54099	0.81
3.57978	0.84
3.61858	0.831
3.65737	0.87
3.69617	0.878
3.73496	0.896
3.77375	0.907
3.81255	0.913
3.85134	0.923
3.89014	0.935
3.92893	0.939
3.96773	0.944
4.00652	0.946
4.04532	0.948
4.08411	0.946
4.12291	0.941
4.1617	0.939
4.20049	0.936
4.23929	0.925
4.27808	0.923
4.31688	0.936
4.35567	0.948
4.39447	0.952
4.43326	0.952
4.47206	0.956
4.51085	0.959
4.54965	0.959
4.58844	0.956
4.62723	0.949
4.66603	0.948
4.70482	0.944
4.74362	0.944
4.78241	0.941
4.82121	0.941
4.86	0.946
4.8988	0.948
4.93759	0.951
4.97639	0.949
5.01518	0.951
5.05397	0.952
5.09277	0.952
5.13156	0.952
5.17036	0.959
5.20915	0.959
5.24795	0.959
5.28674	0.959
5.32554	0.951
5.36433	0.946
5.40312	0.936
5.44192	0.926
5.48071	0.915
5.51951	0.884
5.5583	0.821
5.5971	0.741
5.63589	0.521
5.67469	0.176
5.71348	0.029
5.75228	0.024
5.79107	0.125
5.82986	0.465
5.86866	0.633
5.90745	0.719
5.94625	0.818
5.98504	0.858
6.02384	0.896
6.06263	0.899
6.10143	0.913
6.14022	0.92
6.17902	0.923
6.21781	0.926
6.2566	0.926
6.2954	0.926
6.33419	0.918
6.37299	0.918
6.41178	0.912
6.45058	0.904
6.48937	0.902
6.52817	0.894
6.56696	0.879
6.60576	0.853
6.64455	0.819
6.68334	0.748
6.72214	0.53
6.76093	0.241
6.79973	0.081
6.83852	0.17
6.87732	0.332
6.91611	0.491
6.95491	0.623
6.9937	0.628
7.0325	0.665
7.07129	0.662
7.11008	0.503
7.14888	0.326
7.18767	0.277
7.22647	0.288
7.26526	0.418
7.30406	0.428
7.34285	0.42
7.38165	0.431
7.42044	0.461
7.45924	0.514
7.49803	0.534
7.53682	0.503
7.57562	0.485
7.61441	0.449
7.65321	0.428
7.692	0.417
7.7308	0.399
7.76959	0.352
7.80839	0.285
7.84718	0.204
7.88598	0.17
7.92477	0.154
7.96356	0.152
8.00236	0.168
8.04115	0.175
8.07995	0.176
8.11874	0.168
8.15754	0.17
8.19633	0.186
8.23513	0.193
8.27392	0.186
8.31272	0.159
8.35151	0.125
8.3903	0.081
8.4291	0.061
8.46789	0.045
8.50669	0.04
8.54548	0.04
8.58428	0.051
8.62307	0.063
8.66187	0.073
8.70066	0.09
8.73946	0.136
8.77825	0.219
8.81704	0.303
8.85584	0.329
8.89463	0.329
8.93343	0.347
8.97222	0.392
9.01102	0.418
9.04981	0.436
9.08861	0.423
9.1274	0.384
9.1662	0.379
9.20499	0.436
9.24378	0.498
9.28258	0.56
9.32137	0.592
9.36017	0.586
9.39896	0.582
9.43776	0.59
9.47655	0.61
9.51535	0.61
9.55414	0.602
9.59294	0.579
9.63173	0.537
9.67052	0.529
9.70932	0.535
9.74811	0.553
9.78691	0.535
9.8257	0.509
9.8645	0.493
9.90329	0.485
9.94209	0.485
9.98088	0.511
10.0197	0.534
10.0585	0.556
10.0973	0.564
10.1361	0.571
10.1749	0.577
10.2136	0.599
10.2524	0.603
10.2912	0.603
10.33	0.603
10.3688	0.603
10.4076	0.626
10.4464	0.65
10.4852	0.675
10.524	0.694
10.5628	0.709
10.6016	0.728
10.6404	0.733
10.6792	0.74
10.718	0.743
10.7568	0.751
10.7956	0.762
10.8344	0.771
10.8732	0.777
10.9119	0.782
10.9507	0.772
10.9895	0.756
11.0283	0.764
11.0671	0.777
11.1059	0.784
11.1447	0.798
11.1835	0.805
11.2223	0.827
11.2611	0.839
11.2999	0.849
11.3387	0.86
11.3775	0.863
11.4163	0.865
11.4551	0.866
11.4939	0.875
11.5327	0.884
11.5715	0.891
11.6103	0.896
11.649	0.899
11.6878	0.904
11.7266	0.907
11.7654	0.909
11.8042	0.91
11.843	0.905
11.8818	0.909
11.9206	0.909
11.9594	0.91
11.9982	0.912
12.037	0.909
12.0758	0.902
12.1146	0.9
12.1534	0.905
12.1922	0.907
12.231	0.907
12.2698	0.905
12.3086	0.902
12.3473	0.896
12.3861	0.886
12.4249	0.878
12.4637	0.871
12.5025	0.863
12.5413	0.853
12.5801	0.844
12.6189	0.829
12.6577	0.814
12.6965	0.803
12.7353	0.792
12.7741	0.79
12.8129	0.784
12.8517	0.78
12.8905	0.769
12.9293	0.758
12.9681	0.754
13.0069	0.762
13.0456	0.788
13.0844	0.813
13.1232	0.84
13.162	0.85
13.2008	0.855
13.2396	0.847
13.2784	0.839
13.3172	0.834
13.356	0.832
13.3948	0.827
13.4336	0.826
13.4724	0.823
13.5112	0.814
13.55	0.798
13.5888	0.772
13.6276	0.743
13.6664	0.719
13.7052	0.704
13.744	0.719
13.7827	0.762
13.8215	0.811
13.8603	0.852
13.8991	0.881
13.9379	0.902
13.9767	0.917
14.0155	0.925
14.0543	0.928
14.0931	0.933
14.1319	0.933
14.1707	0.939
14.2095	0.944
14.2483	0.948
14.2871	0.949
14.3259	0.951
14.3647	0.951
14.4035	0.952
14.4423	0.946
14.481	0.946
14.5198	0.946
14.5586	0.939
14.5974	0.935
14.6362	0.931
14.675	0.928
14.7138	0.928
14.7526	0.923
14.7914	0.92
14.8302	0.91
14.869	0.909
14.9078	0.905
14.9466	0.894
14.9854	0.876
15.0242	0.871
15.063	0.879
15.1018	0.879
15.1406	0.866
15.1793	0.858
15.2181	0.852
15.2569	0.845
15.2957	0.836
15.3345	0.831
15.3733	0.821
15.4121	0.806
15.4509	0.8
15.4897	0.798
15.5285	0.79
15.5673	0.782
15.6061	0.774
15.6449	0.769
15.6837	0.758
15.7225	0.756
15.7613	0.753
15.8001	0.743
15.8389	0.738
15.8777	0.73
15.9164	0.727
15.9552	0.72
15.994	0.715
