Infrared Spectrum: cis-3-Methyl-2-pentene
Formula: C 6 H 12
CAS: 922-62-3
State: gas
Instrument: HP-GC/MS/IRD
Origin: NIST Mass Spectrometry Data Center
1/CM	ABSORBANCE
550	0.0010414
562	0.0006642
574	0.000369
586	0.0002132
598	9.43e-05
610	0.0001394
622	3.28e-05
634	6.15e-05
646	0.0001517
658	7.38e-05
670	0.0001148
682	0.0002009
694	6.97e-05
706	0.0001312
718	0.0002214
730	0.0003075
742	0.0003772
754	0.0004838
766	0.0008405
778	0.0018819
790	0.0034317
802	0.0047929
814	0.0051209
826	0.003157
838	0.0014555
850	0.0006724
862	0.0005658
874	0.0004141
886	0.0006027
898	0.0009102
910	0.0013284
922	0.0013079
934	0.0009635
946	0.0006232
958	0.0005576
970	0.0006888
982	0.001025
994	0.0016974
1006	0.0023575
1018	0.0025297
1030	0.0020008
1042	0.0018245
1054	0.0019434
1066	0.0019639
1078	0.0017999
1090	0.0016113
1102	0.0018245
1114	0.0017958
1126	0.0013325
1138	0.0006109
1150	0.0005125
1162	0.0004633
1174	0.0005289
1186	0.000615
1198	0.0007872
1210	0.0008487
1222	0.0006519
1234	0.0006724
1246	0.0007298
1258	0.001025
1270	0.001148
1282	0.0013284
1294	0.0017097
1306	0.0018778
1318	0.0016687
1330	0.0012956
1342	0.0014514
1354	0.0021812
1366	0.0037802
1378	0.0047642
1390	0.0044772
1402	0.0027388
1414	0.0023165
1426	0.0031365
1438	0.0047027
1450	0.0067322
1462	0.0068183
1474	0.0056252
1486	0.0034645
1498	0.0021648
1510	0.0016728
1522	0.0015252
1534	0.0013899
1546	0.0012546
1558	0.0010947
1570	0.0010004
1582	0.0009594
1594	0.0010619
1606	0.0010824
1618	0.0010455
1630	0.0008938
1642	0.0007298
1654	0.0007052
1666	0.0006683
1678	0.0005289
1690	0.000328
1702	0.0002296
1714	0.0002009
1726	0.0001968
1738	0.0001476
1750	0.0001558
1762	0.0001763
1774	0.0001804
1786	0.0002214
1798	0.0002911
1810	0.0003321
1822	0.0004387
1834	0.0004756
1846	0.0004305
1858	0.000369
1870	0.0002378
1882	0.0001886
1894	0.0001886
1906	0.0001886
1918	0.0001517
1930	8.2e-05
1942	6.56e-05
1954	6.56e-05
1966	5.74e-05
1978	4.92e-05
1990	6.15e-05
2002	6.56e-05
2014	6.56e-05
2026	7.79e-05
2038	0.0001312
2050	0.0001107
2062	0.0001148
2074	7.38e-05
2086	3.69e-05
2098	2.87e-05
2110	5.74e-05
2122	5.33e-05
2134	2.46e-05
2146	5.74e-05
2158	2.46e-05
2170	4.51e-05
2182	4.51e-05
2194	2.87e-05
2206	4.51e-05
2218	4.1e-05
2230	2.87e-05
2242	2.87e-05
2254	5.74e-05
2266	5.33e-05
2278	4.51e-05
2290	6.97e-05
2302	3.28e-05
2314	6.97e-05
2326	5.33e-05
2338	8.2e-05
2350	0.0001271
2362	0.0001681
2374	0.0002009
2386	0.0002009
2398	0.0002009
2410	0.0001927
2422	0.0001804
2434	0.0002583
2446	0.0002624
2458	0.0002255
2470	0.0002419
2482	0.0001722
2494	0.000164
2506	0.0001763
2518	0.0001599
2530	0.0001558
2542	0.0001804
2554	0.000205
2566	0.0002009
2578	0.0002173
2590	0.0002173
2602	0.0002501
2614	0.0002337
2626	0.0002173
2638	0.000287
2650	0.0003485
2662	0.0003649
2674	0.0003936
2686	0.0003977
2698	0.0004797
2710	0.0006765
2722	0.0010783
2734	0.001394
2746	0.0015457
2758	0.0013079
2770	0.0012423
2782	0.001312
2794	0.0017138
2806	0.0023001
2818	0.0030873
2830	0.0042066
2842	0.0064575
2854	0.0116235
2866	0.0189174
2878	0.0234438
2890	0.0236857
2902	0.0228206
2914	0.0263179
2926	0.0317668
2938	0.0352805
2950	0.0330337
2962	0.0384744
2974	0.0405736
2986	0.032677
2998	0.0183434
3010	0.0122713
3022	0.0106477
3034	0.0097949
3046	0.007995
3058	0.0054735
3070	0.0035998
3082	0.0027142
3094	0.0022714
3106	0.0019516
3118	0.0016236
3130	0.0012833
3142	0.0011316
3154	0.0009061
3166	0.0008692
3178	0.0006806
3190	0.0005125
3202	0.000451
3214	0.0003813
3226	0.0002911
3238	0.0002501
3250	0.0002132
3262	0.0002296
3274	0.0001968
3286	0.0001845
3298	0.0001394
3310	0.0001599
3322	0.000205
3334	0.0001312
3346	0.0001148
3358	0.000123
3370	7.79e-05
3382	9.43e-05
3394	2.87e-05
3406	8.61e-05
3418	8.2e-05
3430	9.43e-05
3442	9.02e-05
3454	4.51e-05
3466	4.1e-05
3478	7.79e-05
3490	3.69e-05
3502	4.92e-05
3514	7.79e-05
3526	3.69e-05
3538	0.0001353
3550	3.69e-05
3562	4.92e-05
3574	7.38e-05
3586	5.74e-05
3598	3.28e-05
3610	0.0001148
3622	5.74e-05
3634	0.0001271
3646	1.23e-05
3658	5.33e-05
3670	4.51e-05
3682	6.15e-05
3694	8.2e-06
3706	2.05e-05
3718	7.79e-05
3730	9.02e-05
3742	0.0001353
3754	5.74e-05
3766	0.0001107
3778	7.79e-05
3790	0.0001107
3802	0.0001025
3814	0.0001025
3826	0.0001066
3838	7.38e-05
