Infrared Spectrum: DI 2-ETHYLHEXYL 2,5-DIETHYLADIPATE
Formula: C26 H50 O4
CAS: 922-08-7
Class: COBLENTZ
Instrument: Not specified, most likely a prism, grating, or hybrid spectrometer.
Sampling: TRANSMISSION
Path length: 0.0026 CM
Resolution: 4
MICROMETERS	TRANSMITTANCE
2.023	0.898
2.06189	0.899
2.10077	0.904
2.13966	0.902
2.17854	0.881
2.21743	0.851
2.25631	0.843
2.2952	0.855
2.33408	0.862
2.37297	0.87
2.41186	0.877
2.45074	0.883
2.48963	0.894
2.52851	0.899
2.5674	0.901
2.60628	0.902
2.64517	0.914
2.68406	0.902
2.72294	0.909
2.76183	0.912
2.80071	0.917
2.8396	0.917
2.87848	0.88
2.91737	0.901
2.95625	0.915
2.99514	0.919
3.03403	0.919
3.07291	0.915
3.1118	0.902
3.15068	0.893
3.18957	0.883
3.22845	0.872
3.26734	0.831
3.30623	0.742
3.34511	0.469
3.384	0.032
3.42288	0.021
3.46177	0.1
3.50065	0.071
3.53954	0.461
3.57842	0.733
3.61731	0.822
3.6562	0.838
3.69508	0.83
3.73397	0.87
3.77285	0.88
3.81174	0.898
3.85062	0.902
3.88951	0.907
3.9284	0.919
3.96728	0.922
4.00617	0.927
4.04505	0.932
4.08394	0.932
4.12282	0.932
4.16171	0.93
4.20059	0.92
4.23948	0.907
4.27837	0.885
4.31725	0.898
4.35614	0.914
4.39502	0.93
4.43391	0.933
4.47279	0.938
4.51168	0.94
4.55057	0.941
4.58945	0.943
4.62834	0.941
4.66722	0.94
4.70611	0.936
4.74499	0.938
4.78388	0.935
4.82276	0.933
4.86165	0.93
4.90054	0.933
4.93942	0.938
4.97831	0.94
5.01719	0.935
5.05608	0.936
5.09496	0.943
5.13385	0.938
5.17274	0.938
5.21162	0.943
5.25051	0.943
5.28939	0.943
5.32828	0.94
5.36716	0.936
5.40605	0.933
5.44493	0.93
5.48382	0.925
5.52271	0.912
5.56159	0.891
5.60048	0.851
5.63936	0.779
5.67825	0.682
5.71713	0.514
5.75602	0.135
5.79491	0.022
5.83379	0.074
5.87268	0.459
5.91156	0.648
5.95045	0.71
5.98933	0.809
6.02822	0.844
6.0671	0.883
6.10599	0.886
6.14488	0.894
6.18376	0.902
6.22265	0.911
6.26153	0.912
6.30042	0.915
6.3393	0.915
6.37819	0.902
6.41708	0.896
6.45596	0.888
6.49485	0.88
6.53373	0.877
6.57262	0.872
6.6115	0.855
6.65039	0.826
6.68927	0.804
6.72816	0.728
6.76705	0.558
6.80593	0.239
6.84482	0.08
6.8837	0.184
6.92259	0.399
6.96147	0.598
7.00036	0.724
7.03925	0.752
7.07813	0.747
7.11702	0.671
7.1559	0.467
7.19479	0.347
7.23367	0.302
7.27256	0.352
7.31144	0.459
7.35033	0.47
7.38922	0.506
7.4281	0.54
7.46699	0.567
7.50587	0.619
7.54476	0.637
7.58364	0.601
7.62253	0.584
7.66142	0.569
7.7003	0.553
7.73919	0.524
7.77807	0.475
7.81696	0.385
7.85584	0.296
7.89473	0.202
7.93361	0.186
7.9725	0.223
8.01139	0.266
8.05027	0.262
8.08916	0.255
8.12804	0.286
8.16693	0.258
8.20581	0.233
8.2447	0.249
8.28359	0.224
8.32247	0.173
8.36136	0.139
8.40024	0.119
8.43913	0.098
8.47801	0.064
8.5169	0.053
8.55578	0.038
8.59467	0.037
8.63356	0.042
8.67244	0.055
8.71133	0.076
8.75021	0.1
8.7891	0.135
8.82798	0.205
8.86687	0.279
8.90576	0.349
8.94464	0.396
8.98353	0.42
9.02241	0.456
9.0613	0.469
9.10018	0.441
9.13907	0.407
9.17795	0.398
9.21684	0.423
9.25573	0.474
9.29461	0.537
9.3335	0.572
9.37238	0.598
9.41127	0.626
9.45015	0.647
9.48904	0.65
9.52792	0.632
9.56681	0.627
9.6057	0.613
9.64458	0.613
9.68347	0.611
9.72235	0.6
9.76124	0.59
9.80012	0.569
9.83901	0.542
9.8779	0.522
9.91678	0.516
9.95567	0.521
9.99455	0.535
10.0334	0.55
10.0723	0.574
10.1112	0.595
10.1501	0.592
10.189	0.587
10.2279	0.587
10.2668	0.601
10.3056	0.606
10.3445	0.6
10.3834	0.597
10.4223	0.587
10.4612	0.6
10.5001	0.622
10.539	0.645
10.5778	0.676
10.6167	0.71
10.6556	0.736
10.6945	0.737
10.7334	0.745
10.7723	0.755
10.8112	0.773
10.85	0.775
10.8889	0.776
10.9278	0.775
10.9667	0.771
11.0056	0.768
11.0445	0.77
11.0833	0.786
11.1222	0.799
11.1611	0.815
11.2	0.823
11.2389	0.839
11.2778	0.852
11.3167	0.867
11.3555	0.872
11.3944	0.875
11.4333	0.88
11.4722	0.886
11.5111	0.894
11.55	0.901
11.5889	0.902
11.6277	0.907
11.6666	0.911
11.7055	0.912
11.7444	0.917
11.7833	0.919
11.8222	0.92
11.8611	0.92
11.8999	0.914
11.9388	0.915
11.9777	0.907
12.0166	0.898
12.0555	0.886
12.0944	0.877
12.1333	0.87
12.1721	0.864
12.211	0.851
12.2499	0.844
12.2888	0.825
12.3277	0.815
12.3666	0.805
12.4055	0.794
12.4443	0.789
12.4832	0.788
12.5221	0.783
12.561	0.781
12.5999	0.773
12.6388	0.77
12.6777	0.765
12.7165	0.754
12.7554	0.752
12.7943	0.749
12.8332	0.75
12.8721	0.75
12.911	0.749
12.9499	0.741
12.9887	0.737
13.0276	0.747
13.0665	0.758
13.1054	0.781
13.1443	0.807
13.1832	0.833
13.2221	0.838
13.2609	0.834
13.2998	0.825
13.3387	0.823
13.3776	0.818
13.4165	0.815
13.4554	0.815
13.4943	0.813
13.5331	0.813
13.572	0.813
13.6109	0.807
13.6498	0.8
13.6887	0.784
13.7276	0.779
13.7665	0.786
13.8053	0.817
13.8442	0.859
13.8831	0.891
13.922	0.912
13.9609	0.925
13.9998	0.938
14.0387	0.944
14.0775	0.949
14.1164	0.951
14.1553	0.957
14.1942	0.959
14.2331	0.953
14.272	0.956
14.3109	0.956
14.3497	0.954
14.3886	0.953
14.4275	0.949
14.4664	0.946
14.5053	0.946
14.5442	0.946
14.5831	0.938
14.6219	0.93
14.6608	0.922
14.6997	0.92
14.7386	0.919
14.7775	0.914
14.8164	0.911
14.8553	0.904
14.8941	0.902
14.933	0.896
14.9719	0.883
15.0108	0.867
15.0497	0.86
15.0886	0.86
15.1275	0.86
15.1663	0.857
15.2052	0.852
15.2441	0.846
15.283	0.838
15.3219	0.828
15.3608	0.822
15.3997	0.813
15.4385	0.805
15.4774	0.799
15.5163	0.791
15.5552	0.783
15.5941	0.775
15.633	0.766
15.6719	0.76
15.7107	0.754
15.7496	0.747
15.7885	0.742
15.8274	0.734
15.8663	0.726
15.9052	0.718
15.9441	0.711
15.9829	0.703
