Infrared Spectrum: Z-Styrenesulphonylacetic acid
Formula: C 10 H 10 O 4 S
CAS: 92207-24-4
State: gas
Origin: EPA-IR VAPOR PHASE LIBRARY
1/CM	ABSORBANCE
549.8	0.009311
559.445	0.003871
569.09	0.002701
578.734	0.0016681
588.379	0.002091
598.024	0.002631
607.669	0.009231
617.313	0.013331
626.958	0.011951
636.603	0.008381
646.248	0.004501
655.893	0.005011
665.537	0.006521
675.182	0.011591
684.827	0.018221
694.472	0.024411
704.116	0.028261
713.761	0.020441
723.406	0.011581
733.051	0.010111
742.695	0.015151
752.34	0.023981
761.985	0.039711
771.63	0.057281
781.275	0.055781
790.919	0.030731
800.564	0.013111
810.209	0.006551
819.854	0.006711
829.498	0.005991
839.143	0.005891
848.788	0.006051
858.433	0.005751
868.078	0.003951
877.722	0.003491
887.367	0.003511
897.012	0.002801
906.657	0.003651
916.301	0.005211
925.946	0.005831
935.591	0.006101
945.236	0.012151
954.88	0.027931
964.525	0.024481
974.17	0.007641
983.815	0.004331
993.46	0.003381
1003.1	0.002681
1012.75	0.002161
1022.39	0.004911
1032.04	0.004421
1041.68	0.0014968
1051.33	0.0019362
1060.97	0.003071
1070.62	0.003961
1080.26	0.004271
1089.91	0.002341
1099.55	0.004751
1109.2	0.005581
1118.84	0.012761
1128.49	0.036001
1138.13	0.073361
1147.78	0.073811
1157.42	0.057571
1167.07	0.035371
1176.71	0.015351
1186.36	0.007931
1196	0.003941
1205.64	0.005371
1215.29	0.004251
1224.93	0.005251
1234.58	0.004681
1244.22	0.003931
1253.87	0.004111
1263.51	0.003721
1273.16	0.003931
1282.8	0.005571
1292.45	0.008281
1302.09	0.014761
1311.74	0.030171
1321.38	0.054431
1331.03	0.088921
1340.67	0.110281
1350.32	0.079341
1359.96	0.043591
1369.61	0.022891
1379.25	0.009821
1388.9	0.005461
1398.54	0.004241
1408.18	0.003981
1417.83	0.004051
1427.47	0.004491
1437.12	0.004961
1446.76	0.005801
1456.41	0.004661
1466.05	0.003331
1475.7	0.003451
1485.34	0.006721
1494.99	0.009451
1504.63	0.004491
1514.28	0.002491
1523.92	0.002191
1533.57	0.002431
1543.21	0.002951
1552.86	0.002891
1562.5	0.004221
1572.15	0.006171
1581.79	0.008201
1591.44	0.010911
1601.08	0.016081
1610.73	0.020481
1620.37	0.019241
1630.01	0.007981
1639.66	0.004001
1649.3	0.003601
1658.95	0.003251
1668.59	0.002971
1678.24	0.002281
1687.88	0.0018149
1697.53	0.0017914
1707.17	0.0017726
1716.82	0.0016828
1726.46	0.001707
1736.11	0.002021
1745.75	0.002041
1755.4	0.00181
1765.04	0.0016538
1774.69	0.0018616
1784.33	0.001971
1793.98	0.002081
1803.62	0.002091
1813.27	0.002051
1822.91	0.0015406
1832.55	0.001304
1842.2	0.0012349
1851.84	0.0013919
1861.49	0.0013204
1871.13	0.0015268
1880.78	0.0018027
1890.42	0.002081
1900.07	0.002121
1909.71	0.001971
1919.36	0.0018222
1929	0.0015807
1938.65	0.0017649
1948.29	0.002191
1957.94	0.002081
1967.58	0.002091
1977.23	0.0013412
1986.87	0.0013434
1996.52	0.0012674
2006.16	0.0010712
2015.81	0.0011642
2025.45	0.0009039
2035.1	0.0010719
2044.74	0.0013194
2054.38	0.0012472
2064.03	0.0011256
2073.67	0.0011921
2083.32	0.0011529
2092.96	0.00099425
2102.61	0.0011026
2112.25	0.00086
2121.9	0.001154
2131.54	0.0008924
2141.19	0.00103888
2150.83	0.0010719
2160.48	0.00103947
2170.12	0.0009396
2179.77	0.0008656
2189.41	0.000969951
2199.06	0.00105018
2208.7	0.0008707
2218.35	0.00103561
2227.99	0.000843
2237.64	0.00100127
2247.28	0.00096161
2256.92	0.0013937
2266.57	0.0014173
2276.21	0.001592
2285.86	0.0015365
2295.5	0.0016092
2305.15	0.0015029
2314.79	0.0015565
2324.44	0.0015523
2334.08	0.0015616
2343.73	0.0014872
2353.37	0.0013322
2363.02	0.0013143
2372.66	0.0012388
2382.31	0.0011433
2391.95	0.0010615
2401.6	0.00099549
2411.24	0.0009115
2420.89	0.000845
2430.53	0.00078
2440.18	0.0011384
2449.82	0.0015137
2459.47	0.00132
2469.11	0.0019564
2478.75	0.0017894
2488.4	0.0016279
2498.04	0.0012153
2507.69	0.0013183
2517.33	0.00103619
2526.98	0.000967319
2536.62	0.0009162
2546.27	0.0011986
2555.91	0.0010649
2565.56	0.00099914
2575.2	0.0011986
2584.85	0.0009499
2594.49	0.0011372
2604.14	0.0011365
2613.78	0.00098316
2623.43	0.000969794
2633.07	0.0013191
2642.72	0.000733
2652.36	0.0009393
2662.01	0.0010918
2671.65	0.00097762
2681.29	0.0009573
2690.94	0.00097775
2700.58	0.0009498
2710.23	0.00101443
2719.87	0.0011873
2729.52	0.0011344
2739.16	0.0008906
2748.81	0.000867
2758.45	0.0012292
2768.1	0.0014251
2777.74	0.000965847
2787.39	0.0013767
2797.03	0.000775
2806.68	0.000766
2816.32	0.001025
2825.97	0.000416
2835.61	0.0009023
2845.26	0.0009249
2854.9	0.0011112
2864.55	0.000482
2874.19	0.0013165
2883.84	0.0008964
2893.48	0.0012172
2903.12	0.0009962
2912.77	0.0014974
2922.41	0.002041
2932.06	0.002321
2941.7	0.002191
2951.35	0.0018099
2960.99	0.0016932
2970.64	0.0012043
2980.28	0.0012768
2989.93	0.002681
2999.57	0.003331
3009.22	0.005471
3018.86	0.008111
3028.51	0.009861
3038.15	0.009181
3047.8	0.007031
3057.44	0.010121
3067.09	0.017261
3076.73	0.016561
3086.38	0.009351
3096.02	0.006871
3105.67	0.004391
3115.31	0.002541
3124.95	0.002001
3134.6	0.001878
3144.24	0.0015803
3153.89	0.0018189
3163.53	0.0014942
3173.18	0.0012925
3182.82	0.0011734
3192.47	0.0017562
3202.11	0.00099607
3211.76	0.0010908
3221.4	0.00101892
3231.05	0.000633
3240.69	0.0012412
3250.34	0.00034
3259.98	0.000771
3269.63	0.0011293
3279.27	0.0011095
3288.92	0.000792
3298.56	0.0011882
3308.21	0.0006
3317.85	0.0011472
3327.49	0.000246
3337.14	0.000714
3346.78	0.000134
3356.43	0.000319
3366.07	0.0008714
3375.72	0.000659
3385.36	0.0011348
3395.01	0.000579
3404.65	0.0014645
3414.3	0.000764
3423.94	0.000277
3433.59	0.000782
3443.23	0.00018
3452.88	0.000491
3462.52	0.000816
3472.17	9.6e-05
3481.81	0.000493
3491.46	0.00097171
3501.1	0.000836
3510.75	0.000834
3520.39	0.00065
3530.04	0.000321
3539.68	0.000834
3549.32	0.000142
3558.97	0.000496
3568.61	0.0008721
3578.26	0.000826
3587.9	0.000456
3597.55	0.000859
3607.19	0.001532
3616.84	0.00067
3626.48	0.001081
3636.13	0.00098948
3645.77	0.000771
3655.42	0.000834
3665.06	0.0012631
3674.71	0.00046
3684.35	0.0010686
3694	0.000819
3703.64	0.000565
3713.29	8.7e-05
3722.93	0.000742
3732.58	0.000411
3742.22	0.000721
3751.86	0.00099429
3761.51	0.000453
3771.15	0.000707
3780.8	0.0008681
3790.44	0.0013696
3800.09	0.0012359
3809.73	0.000318
3819.38	0.0008698
3829.02	0.0009213
3838.67	0.000534
3848.31	0.000701
3857.96	0.000585
3867.6	0.000523
3877.25	0.0009236
3886.89	0.000618
3896.54	0.0012339
3906.18	0.0011517
3915.83	0.000733
3925.47	0.000625
3935.12	0.0011689
3944.76	0.000589
3954.41	0.0009066
3964.05	0.00100869
3973.69	0.000562
3983.34	0.000667
3992.98	0.000374
