Infrared Spectrum: Acetamide, 2-amino-2-(o-hydroxyphenyl)-2-phenyl-,
Formula: C14 H14 N2 O2
CAS: 92245-40-4
State: SOLID (NUJOL MULL)
Class: COBLENTZ III
Instrument: PERKIN-ELMER 21 (GRATING)
Instrument parameters: FILTER AT ABOUT 10 MICRONS
Resolution: 2
Origin: ABBOTT LABORATORIES
1/CM	TRANSMITTANCE
668	0.6692
677	0.664
686	0.6425
695	0.4078
704	0.4717
713	0.6346
722	0.6015
731	0.6552
740	0.6378
749	0.5613
758	0.2972
767	0.2943
776	0.6501
785	0.6365
794	0.5854
803	0.5616
812	0.5518
821	0.581
830	0.6715
839	0.6386
848	0.5707
857	0.4534
866	0.5782
875	0.5463
884	0.3864
893	0.4641
902	0.656
911	0.537
920	0.5658
929	0.5113
938	0.5715
947	0.5832
956	0.5396
965	0.3781
974	0.3187
983	0.5677
992	0.693
1001	0.573
1010	0.6933
1019	0.6803
1028	0.6425
1037	0.6048
1046	0.6905
1055	0.6768
1064	0.6702
1073	0.6609
1082	0.6181
1091	0.6447
1100	0.5509
1109	0.515
1118	0.5713
1127	0.6589
1136	0.6566
1145	0.6178
1154	0.5695
1163	0.6042
1172	0.6089
1181	0.562
1190	0.5124
1199	0.3925
1208	0.5726
1217	0.5661
1226	0.5065
1235	0.4088
1244	0.2476
1253	0.501
1262	0.4704
1271	0.5038
1280	0.5424
1289	0.484
1298	0.5276
1307	0.5628
1316	0.5467
1325	0.5556
1334	0.5138
1343	0.5026
1352	0.4385
1361	0.3127
1370	0.1644
1379	0.196
1388	0.3553
1397	0.3733
1406	0.4265
1415	0.5179
1424	0.495
1433	0.3262
1442	0.1705
1451	0.1107
1460	0.0824
1469	0.1589
1478	0.2883
1487	0.2443
1496	0.5348
1505	0.5914
1514	0.5828
1523	0.5505
1532	0.5122
1541	0.4083
1550	0.4
1559	0.4586
1568	0.4512
1577	0.3542
1586	0.3633
1595	0.3501
1604	0.3322
1613	0.5088
1622	0.5566
1631	0.5479
1640	0.5142
1649	0.4563
1658	0.3792
1667	0.3028
1676	0.2273
1685	0.1533
1694	0.1451
1703	0.3494
1712	0.5287
1721	0.6004
1730	0.6437
1739	0.6791
1748	0.6987
1757	0.7052
1766	0.707
1775	0.7077
1784	0.7075
1793	0.7056
1802	0.7029
1811	0.7001
1820	0.7031
1829	0.7035
1838	0.701
1847	0.6987
1856	0.6977
1865	0.6946
1874	0.6884
1883	0.6821
1892	0.6803
1901	0.6785
1910	0.6743
1919	0.6683
1928	0.6673
1937	0.6666
1946	0.6612
1955	0.6562
1964	0.6583
1973	0.6628
1982	0.6608
1991	0.6581
2000	0.6551
2009	0.6516
2018	0.6483
2027	0.6451
2036	0.6414
2045	0.6371
2054	0.6348
2063	0.6339
2072	0.6341
2081	0.6332
2090	0.6299
2099	0.6259
2108	0.6225
2117	0.6194
2126	0.6162
2135	0.6128
2144	0.6096
2153	0.6064
2162	0.6038
2171	0.6014
2180	0.5989
2189	0.5966
2198	0.5941
2207	0.5911
2216	0.5881
2225	0.585
2234	0.5809
2243	0.5764
2252	0.5719
2261	0.5674
2270	0.5623
2279	0.5567
2288	0.551
2297	0.5448
2306	0.5394
2315	0.5371
2324	0.5363
2333	0.5355
2342	0.5348
2351	0.5354
2360	0.5361
2369	0.5363
2378	0.5342
2387	0.5319
2396	0.5274
2405	0.5219
2414	0.518
2423	0.5165
2432	0.5156
2441	0.5146
2450	0.5131
2459	0.5074
2468	0.5012
2477	0.4947
2486	0.4899
2495	0.485
2504	0.4786
2513	0.4724
2522	0.4665
2531	0.4611
2540	0.4556
2549	0.4503
2558	0.4451
2567	0.4401
2576	0.4354
2585	0.432
2594	0.4285
2603	0.4251
2612	0.4228
2621	0.421
2630	0.4192
2639	0.4176
2648	0.4169
2657	0.4162
2666	0.4156
2675	0.415
2684	0.415
2693	0.4156
2702	0.4162
2711	0.4167
2720	0.417
2729	0.4168
2738	0.4151
2747	0.4115
2756	0.4057
2765	0.3955
2774	0.3808
2783	0.3449
2792	0.2758
2801	0.2073
2810	0.1392
2819	0.072
2828	0.0373
2837	0.0236
2846	0.0177
2855	0.0138
2864	0.0115
2873	0.0101
2882	0.0094
2891	0.009
2900	0.0093
2909	0.0098
2918	0.0118
2927	0.0166
2936	0.0333
2945	0.0719
2954	0.1103
2963	0.1484
2972	0.1863
2981	0.2217
2990	0.2439
2999	0.2586
3008	0.2652
3017	0.271
3026	0.2745
3035	0.2773
3044	0.2782
3053	0.2788
3062	0.2777
3071	0.2754
3080	0.2706
3089	0.2632
3098	0.2561
3107	0.2515
3116	0.2512
3125	0.2525
3134	0.257
3143	0.2675
3152	0.2825
3161	0.2983
3170	0.314
3179	0.3297
3188	0.3456
3197	0.3602
3206	0.3684
3215	0.3726
3224	0.3727
3233	0.37
3242	0.3677
3251	0.3671
3260	0.3806
3269	0.3977
3278	0.4091
3287	0.4078
3296	0.3955
3305	0.3816
3314	0.3677
3323	0.3538
3332	0.3488
3341	0.3628
3350	0.3983
3359	0.4081
3368	0.3925
3377	0.3689
3386	0.3455
3395	0.3223
3404	0.2992
3413	0.2796
3422	0.2769
3431	0.3303
3440	0.4629
3449	0.4693
3458	0.4677
3467	0.4655
3476	0.4628
3485	0.4599
3494	0.4568
3503	0.4527
3512	0.4481
3521	0.4455
3530	0.4429
3539	0.44
3548	0.4371
3557	0.4341
3566	0.4314
3575	0.4299
3584	0.4283
3593	0.4268
3602	0.4252
3611	0.4236
3620	0.4221
3629	0.4207
3638	0.4191
3647	0.4176
3656	0.4161
3665	0.4146
3674	0.4131
3683	0.4117
3692	0.4102
3701	0.4087
3710	0.4072
3719	0.4058
3728	0.4043
3737	0.4029
3746	0.4015
3755	0.4001
3764	0.3986
3773	0.3972
3782	0.3958
3791	0.3945
3800	0.3931
3809	0.3917
3818	0.3903
3827	0.3889
3836	0.3875
3845	0.3861
3854	0.3849
3863	0.3835
3872	0.3821
3881	0.3808
3890	0.3795
3899	0.3781
3908	0.3768
3917	0.3756
3926	0.3743
3935	0.3729
3944	0.3716
3953	0.3703
3962	0.369
3971	0.3678
3980	0.3666
3989	0.3653
3998	0.3644
