Infrared Spectrum: N-2-(1-HYDROXY-3-METHYL) BUTYLBENZAMIDE
Formula: C12 H17 N O2
CAS: 92265-07-1
State: SOLID
Melting point: 82-83 C
Class: COBLENTZ
Instrument: Not specified, most likely a prism, grating, or hybrid spectrometer.
Sampling: TRANSMISSION
Resolution: 4
Origin: ARTHUR D. LITTLE, INC.
MICROMETERS	TRANSMITTANCE
2.517	0.757
2.55322	0.762
2.58944	0.764
2.62565	0.769
2.66187	0.774
2.69809	0.772
2.73431	0.76
2.77053	0.742
2.80675	0.687
2.84296	0.496
2.87918	0.339
2.9154	0.199
2.95162	0.124
2.98784	0.1
3.02406	0.077
3.06027	0.077
3.09649	0.088
3.13271	0.136
3.16893	0.196
3.20515	0.24
3.24137	0.23
3.27758	0.236
3.3138	0.31
3.35002	0.289
3.38624	0.117
3.42246	0.118
3.45868	0.153
3.49489	0.179
3.53111	0.289
3.56733	0.419
3.60355	0.502
3.63977	0.514
3.67599	0.518
3.7122	0.555
3.74842	0.606
3.78464	0.607
3.82086	0.625
3.85708	0.635
3.8933	0.659
3.92951	0.704
3.96573	0.728
4.00195	0.731
4.03817	0.733
4.07439	0.741
4.11061	0.757
4.14682	0.783
4.18304	0.793
4.21926	0.792
4.25548	0.778
4.2917	0.792
4.32792	0.801
4.36413	0.828
4.40035	0.832
4.43657	0.829
4.47279	0.823
4.50901	0.826
4.54523	0.827
4.58144	0.827
4.61766	0.83
4.65388	0.835
4.6901	0.834
4.72632	0.828
4.76254	0.827
4.79875	0.83
4.83497	0.83
4.87119	0.83
4.90741	0.834
4.94363	0.828
4.97985	0.842
5.01606	0.826
5.05228	0.816
5.0885	0.8
5.12472	0.771
5.16094	0.735
5.19716	0.817
5.23337	0.807
5.26959	0.78
5.30581	0.762
5.34203	0.766
5.37825	0.805
5.41447	0.807
5.45068	0.807
5.4869	0.794
5.52312	0.768
5.55934	0.753
5.59556	0.765
5.63178	0.785
5.66799	0.745
5.70421	0.725
5.74043	0.74
5.77665	0.728
5.81287	0.684
5.84908	0.636
5.8853	0.664
5.92152	0.621
5.95774	0.538
5.99396	0.397
6.03018	0.206
6.06639	0.143
6.10261	0.096
6.13883	0.041
6.17505	0.047
6.21127	0.071
6.24749	0.135
6.2837	0.165
6.31992	0.199
6.35614	0.105
6.39236	0.106
6.42858	0.088
6.4648	0.094
6.50101	0.121
6.53723	0.147
6.57345	0.161
6.60967	0.185
6.64589	0.217
6.68211	0.251
6.71832	0.202
6.75454	0.183
6.79076	0.159
6.82698	0.134
6.8632	0.135
6.89942	0.148
6.93563	0.155
6.97185	0.219
7.00807	0.299
7.04429	0.312
7.08051	0.318
7.11673	0.306
7.15294	0.299
7.18916	0.248
7.22538	0.187
7.2616	0.251
7.29782	0.219
7.33404	0.172
7.37025	0.182
7.40647	0.172
7.44269	0.144
7.47891	0.128
7.51513	0.124
7.55135	0.126
7.58756	0.132
7.62378	0.146
7.66	0.165
7.69622	0.171
7.73244	0.164
7.76866	0.181
7.80487	0.196
7.84109	0.289
7.87731	0.294
7.91353	0.288
7.94975	0.351
7.98597	0.367
8.02218	0.315
8.0584	0.295
8.09462	0.408
8.13084	0.442
8.16706	0.468
8.20328	0.5
8.23949	0.528
8.27571	0.561
8.31193	0.572
8.34815	0.59
8.38437	0.58
8.42059	0.533
8.4568	0.486
8.49302	0.486
8.52924	0.49
8.56546	0.489
8.60168	0.414
8.6379	0.347
8.67411	0.322
8.71033	0.338
8.74655	0.399
8.78277	0.44
8.81899	0.46
8.8552	0.461
8.89142	0.5
8.92764	0.543
8.96386	0.538
9.00008	0.501
9.0363	0.387
9.07251	0.3
9.10873	0.294
9.14495	0.316
9.18117	0.321
9.21739	0.346
9.25361	0.326
9.28982	0.265
9.32604	0.202
9.36226	0.182
9.39848	0.172
9.4347	0.234
9.47092	0.305
9.50713	0.391
9.54335	0.433
9.57957	0.402
9.61579	0.314
9.65201	0.259
9.68823	0.239
9.72444	0.23
9.76066	0.235
9.79688	0.272
9.8331	0.338
9.86932	0.428
9.90554	0.491
9.94175	0.542
9.97797	0.528
10.0142	0.591
10.0504	0.663
10.0866	0.666
10.1228	0.655
10.1591	0.614
10.1953	0.565
10.2315	0.536
10.2677	0.582
10.3039	0.618
10.3402	0.628
10.3764	0.618
10.4126	0.632
10.4488	0.665
10.485	0.637
10.5212	0.557
10.5575	0.547
10.5937	0.655
10.6299	0.692
10.6661	0.682
10.7023	0.636
10.7386	0.554
10.7748	0.519
10.811	0.519
10.8472	0.556
10.8834	0.682
10.9196	0.698
10.9559	0.701
10.9921	0.682
11.0283	0.641
11.0645	0.571
11.1007	0.472
11.137	0.466
11.1732	0.554
11.2094	0.629
11.2456	0.631
11.2818	0.603
11.3181	0.538
11.3543	0.473
11.3905	0.483
11.4267	0.533
11.4629	0.514
11.4991	0.512
11.5354	0.574
11.5716	0.624
11.6078	0.647
11.644	0.657
11.6802	0.655
11.7165	0.642
11.7527	0.592
11.7889	0.518
11.8251	0.446
11.8613	0.384
11.8975	0.393
11.9338	0.475
11.97	0.541
12.0062	0.582
12.0424	0.564
12.0786	0.524
12.1149	0.486
12.1511	0.49
12.1873	0.508
12.2235	0.542
12.2597	0.537
12.2959	0.514
12.3322	0.461
12.3684	0.419
12.4046	0.381
12.4408	0.342
12.477	0.321
12.5133	0.323
12.5495	0.344
12.5857	0.434
12.6219	0.495
12.6581	0.549
12.6943	0.584
12.7306	0.595
12.7668	0.591
12.803	0.578
12.8392	0.549
12.8754	0.518
12.9117	0.495
12.9479	0.479
12.9841	0.463
13.0203	0.45
13.0565	0.431
13.0927	0.414
13.129	0.4
13.1652	0.387
13.2014	0.378
13.2376	0.375
13.2738	0.373
13.3101	0.373
13.3463	0.37
13.3825	0.361
13.4187	0.359
13.4549	0.356
13.4911	0.352
13.5274	0.346
13.5636	0.338
13.5998	0.324
13.636	0.301
13.6722	0.282
13.7085	0.262
13.7447	0.245
13.7809	0.231
13.8171	0.217
13.8533	0.213
13.8896	0.204
13.9258	0.187
13.962	0.176
13.9982	0.172
14.0344	0.17
14.0706	0.167
14.1069	0.163
14.1431	0.153
14.1793	0.143
14.2155	0.135
14.2517	0.131
14.288	0.13
14.3242	0.123
14.3604	0.111
14.3966	0.065
14.4328	0.089
14.469	0.102
14.5053	0.112
14.5415	0.131
14.5777	0.149
14.6139	0.173
14.6501	0.189
14.6864	0.194
14.7226	0.216
14.7588	0.225
14.795	0.231
14.8312	0.237
14.8674	0.241
14.9037	0.246
14.9399	0.248
14.9761	0.251
