Infrared Spectrum: Pyrimidine, 2-amino-4-(butylamino)-6-chloro-5-[(p-chlorophenyl)azo]-
Formula: C14 H16 Cl2 N6
CAS: 92298-20-9
State: SOLID (0.8 mg / 650 mg KBr DISC)
Class: COBLENTZ III
Instrument: PERKIN-ELMER 21 (GRATING)
Instrument parameters: FILTER CHANGE AT 1100 CM^-^1
Sampling: TRANSMISSION
Resolution: 2
Origin: SOUTHERN RESEARCH INSTITUTE, W.C. Coburn, Jr.
1/CM	TRANSMITTANCE
596.88	0.9216
605.912	0.9194
614.944	0.9103
623.976	0.9083
633.008	0.9141
642.04	0.8897
651.072	0.854
660.104	0.7986
669.136	0.7722
678.168	0.7936
687.2	0.8163
696.232	0.8332
705.264	0.8265
714.296	0.8767
723.328	0.8579
732.36	0.8134
741.392	0.8817
750.424	0.8807
759.456	0.8548
768.488	0.7938
777.521	0.462
786.553	0.7996
795.585	0.8492
804.617	0.8128
813.649	0.7455
822.681	0.6857
831.713	0.2847
840.745	0.7702
849.777	0.7864
858.809	0.7873
867.841	0.7429
876.873	0.6868
885.905	0.6148
894.937	0.6912
903.969	0.6868
913.001	0.6778
922.033	0.6297
931.065	0.5578
940.097	0.6876
949.129	0.7672
958.161	0.7791
967.193	0.7801
976.225	0.762
985.257	0.7348
994.289	0.72
1003.32	0.6605
1012.35	0.7131
1021.39	0.6738
1030.42	0.6583
1039.45	0.5507
1048.48	0.6661
1057.51	0.7003
1066.55	0.6658
1075.58	0.5907
1084.61	0.3477
1093.64	0.4515
1102.67	0.6216
1111.71	0.5831
1120.74	0.6299
1129.77	0.6616
1138.8	0.6421
1147.83	0.6258
1156.87	0.6083
1165.9	0.6238
1174.93	0.6198
1183.96	0.6015
1192.99	0.5693
1202.03	0.3695
1211.06	0.5796
1220.09	0.5761
1229.12	0.514
1238.15	0.4994
1247.19	0.4227
1256.22	0.4046
1265.25	0.3254
1274.28	0.3173
1283.31	0.4181
1292.35	0.2563
1301.38	0.2989
1310.41	0.4595
1319.44	0.3417
1328.47	0.272
1337.51	0.307
1346.54	0.2981
1355.57	0.2396
1364.6	0.2091
1373.63	0.165
1382.67	0.2229
1391.7	0.4895
1400.73	0.4921
1409.76	0.3998
1418.79	0.4183
1427.83	0.4466
1436.86	0.4367
1445.89	0.4214
1454.92	0.2879
1463.95	0.1828
1472.99	0.2477
1482.02	0.2245
1491.05	0.5168
1500.08	0.5642
1509.11	0.4674
1518.15	0.4046
1527.18	0.3644
1536.21	0.2945
1545.24	0.1859
1554.27	0.0653
1563.31	0.0177
1572.34	0.0186
1581.37	0.0316
1590.4	0.0761
1599.43	0.2244
1608.47	0.44
1617.5	0.5014
1626.53	0.2927
1635.56	0.1036
1644.59	0.1166
1653.63	0.5112
1662.66	0.6455
1671.69	0.7711
1680.72	0.8283
1689.76	0.85
1698.79	0.8623
1707.82	0.8675
1716.85	0.8771
1725.88	0.8801
1734.92	0.8761
1743.95	0.8805
1752.98	0.884
1762.01	0.8849
1771.04	0.8833
1780.08	0.8785
1789.11	0.8733
1798.14	0.871
1807.17	0.8668
1816.2	0.8605
1825.24	0.853
1834.27	0.8477
1843.3	0.8459
1852.33	0.845
1861.36	0.8321
1870.4	0.8256
1879.43	0.8209
1888.46	0.8219
1897.49	0.8221
1906.52	0.82
1915.56	0.8176
1924.59	0.8141
1933.62	0.811
1942.65	0.8072
1951.68	0.8022
1960.72	0.7978
1969.75	0.7941
1978.78	0.7907
1987.81	0.7873
1996.84	0.7839
2005.88	0.7798
2014.91	0.7753
2023.94	0.7707
2032.97	0.7658
2042	0.7606
2051.04	0.7552
2060.07	0.7497
2069.1	0.7505
2078.13	0.7553
2087.16	0.7545
2096.2	0.7518
2105.23	0.7484
2114.26	0.7448
2123.29	0.74
2132.32	0.7319
2141.36	0.7301
2150.39	0.73
2159.42	0.7273
2168.45	0.7231
2177.48	0.7198
2186.52	0.717
2195.55	0.7139
2204.58	0.7107
2213.61	0.7071
2222.64	0.7026
2231.68	0.6988
2240.71	0.6972
2249.74	0.6974
2258.77	0.6917
2267.8	0.6852
2276.84	0.6787
2285.87	0.6721
2294.9	0.665
2303.93	0.6582
2312.96	0.6521
2322	0.6466
2331.03	0.6434
2340.06	0.6434
2349.09	0.6429
2358.13	0.6422
2367.16	0.6415
2376.19	0.6415
2385.22	0.6414
2394.25	0.641
2403.29	0.6401
2412.32	0.6378
2421.35	0.6346
2430.38	0.6299
2439.41	0.6237
2448.45	0.6187
2457.48	0.6147
2466.51	0.6119
2475.54	0.6087
2484.57	0.6055
2493.61	0.6017
2502.64	0.5976
2511.67	0.5908
2520.7	0.594
2529.73	0.5929
2538.77	0.5888
2547.8	0.5837
2556.83	0.5792
2565.86	0.5748
2574.89	0.5703
2583.93	0.5657
2592.96	0.5601
2601.99	0.5541
2611.02	0.5485
2620.05	0.5435
2629.09	0.5389
2638.12	0.5342
2647.15	0.5326
2656.18	0.5281
2665.21	0.5286
2674.25	0.5298
2683.28	0.5275
2692.31	0.5216
2701.34	0.5136
2710.37	0.5079
2719.41	0.5082
2728.44	0.5083
2737.47	0.5054
2746.5	0.5014
2755.53	0.4954
2764.57	0.4896
2773.6	0.4841
2782.63	0.4778
2791.66	0.471
2800.69	0.4628
2809.73	0.452
2818.76	0.4373
2827.79	0.4165
2836.82	0.3948
2845.85	0.3736
2854.89	0.3593
2863.92	0.363
2872.95	0.3765
2881.98	0.393
2891.01	0.4021
2900.05	0.3795
2909.08	0.3441
2918.11	0.3151
2927.14	0.3123
2936.17	0.3249
2945.21	0.3222
2954.24	0.3199
2963.27	0.3561
2972.3	0.3973
2981.33	0.399
2990.37	0.3939
2999.4	0.3845
3008.43	0.3735
3017.46	0.3593
3026.49	0.3457
3035.53	0.3329
3044.56	0.3189
3053.59	0.3008
3062.62	0.2796
3071.66	0.2572
3080.69	0.2369
3089.72	0.2173
3098.75	0.1973
3107.78	0.1777
3116.82	0.1582
3125.85	0.1486
3134.88	0.1698
3143.91	0.1969
3152.94	0.2071
3161.98	0.203
3171.01	0.2061
3180.04	0.2383
3189.07	0.2762
3198.1	0.3116
3207.14	0.3227
3216.17	0.3329
3225.2	0.3598
3234.23	0.4083
3243.26	0.4278
3252.3	0.4202
3261.33	0.3875
3270.36	0.3373
3279.39	0.2893
3288.42	0.2608
3297.46	0.2622
3306.49	0.288
3315.52	0.3644
3324.55	0.4177
3333.58	0.4517
3342.62	0.4711
3351.65	0.488
3360.68	0.5021
3369.71	0.5093
3378.74	0.508
3387.78	0.5022
3396.81	0.4932
3405.84	0.482
3414.87	0.4748
3423.9	0.4693
3432.94	0.4626
3441.97	0.4553
3451	0.4475
3460.03	0.4374
3469.06	0.4118
3478.1	0.3803
3487.13	0.3321
3496.16	0.3205
3505.19	0.3911
3514.22	0.4576
3523.26	0.4826
3532.29	0.4915
3541.32	0.493
3550.35	0.4932
3559.38	0.4925
3568.42	0.4932
3577.45	0.4944
3586.48	0.498
3595.51	0.5035
3604.54	0.5093
3613.58	0.515
3622.61	0.5147
3631.64	0.5142
3640.67	0.5119
3649.7	0.5089
3658.74	0.5092
3667.77	0.5104
3676.8	0.5111
3685.83	0.5112
3694.86	0.5106
3703.9	0.5091
3712.93	0.5067
3721.96	0.5032
3730.99	0.4999
3740.02	0.4966
3749.06	0.4946
3758.09	0.4928
3767.12	0.4919
3776.15	0.4934
3785.19	0.4934
3794.22	0.4897
3803.25	0.4947
3812.28	0.4896
3821.31	0.4857
3830.35	0.4852
3839.38	0.4841
3848.41	0.4827
3857.44	0.481
3866.47	0.48
3875.51	0.4799
3884.54	0.4793
3893.57	0.4752
3902.6	0.4721
3911.63	0.4711
3920.67	0.4715
3929.7	0.4718
3938.73	0.4706
3947.76	0.4683
3956.79	0.4649
3965.83	0.4672
3974.86	0.4668
3983.89	0.4621
3992.92	0.4571
4001.95	0.4527
4010.99	0.4504
