Infrared Spectrum: 9H-Purine, 6-Aziridinyl-9-benzyl-2-chloro-
Formula: C14 H12 Cl N5
CAS: 92291-23-1
State: SOLID (0.8 mg / 650 mg KBr DISC)
Class: COBLENTZ III
Instrument: PERKIN-ELMER 21 (GRATING)
Instrument parameters: FILTER CHANGE ABOUT 1020 CM^-^1
Sampling: TRANSMISSION
Resolution: 2
Origin: SOUTHERN RESEARCH INSTITUTE
1/CM	TRANSMITTANCE
596.501	0.7129
605.526	0.7872
614.55	0.7727
623.575	0.7229
632.6	0.6832
641.624	0.8332
650.649	0.8208
659.674	0.777
668.698	0.6831
677.723	0.7533
686.748	0.6665
695.772	0.6861
704.797	0.4224
713.822	0.5357
722.847	0.7795
731.871	0.79
740.896	0.7534
749.921	0.6359
758.945	0.7726
767.97	0.8069
776.995	0.8016
786.019	0.7577
795.044	0.7434
804.069	0.6599
813.093	0.7616
822.118	0.8015
831.143	0.7786
840.167	0.6518
849.192	0.828
858.217	0.8233
867.241	0.8153
876.266	0.8044
885.291	0.7886
894.315	0.7529
903.34	0.7733
912.365	0.7599
921.389	0.634
930.414	0.4558
939.439	0.7429
948.464	0.799
957.488	0.8086
966.513	0.8126
975.538	0.8102
984.562	0.8019
993.587	0.7851
1002.61	0.7498
1011.64	0.6455
1020.66	0.4837
1029.69	0.6684
1038.71	0.8016
1047.73	0.8016
1056.76	0.7916
1065.78	0.7555
1074.81	0.7201
1083.83	0.7796
1092.86	0.7663
1101.88	0.7716
1110.91	0.7646
1119.93	0.7428
1128.96	0.6813
1137.98	0.3904
1147.01	0.5801
1156.03	0.6644
1165.06	0.6586
1174.08	0.7054
1183.11	0.726
1192.13	0.6715
1201.15	0.6916
1210.18	0.6472
1219.2	0.6543
1228.23	0.5636
1237.25	0.2227
1246.28	0.4262
1255.3	0.6659
1264.33	0.668
1273.35	0.7072
1282.38	0.6725
1291.4	0.6405
1300.43	0.5275
1309.45	0.3181
1318.48	0.2199
1327.5	0.2657
1336.52	0.5518
1345.55	0.6237
1354.57	0.6871
1363.6	0.7455
1372.62	0.6915
1381.65	0.6172
1390.67	0.7253
1399.7	0.6036
1408.72	0.432
1417.75	0.3395
1426.77	0.2564
1435.8	0.3895
1444.82	0.5608
1453.85	0.6652
1462.87	0.7386
1471.89	0.7052
1480.92	0.7365
1489.94	0.704
1498.97	0.7209
1507.99	0.7809
1517.02	0.7845
1526.04	0.7717
1535.07	0.7258
1544.09	0.6828
1553.12	0.5133
1562.14	0.3999
1571.17	0.1861
1580.19	0.1846
1589.22	0.1639
1598.24	0.2961
1607.27	0.5866
1616.29	0.6339
1625.31	0.6791
1634.34	0.7688
1643.36	0.8038
1652.39	0.8177
1661.41	0.8319
1670.44	0.8427
1679.46	0.8512
1688.49	0.8621
1697.51	0.8723
1706.54	0.8742
1715.56	0.8746
1724.59	0.8734
1733.61	0.8701
1742.64	0.8664
1751.66	0.8619
1760.68	0.8571
1769.71	0.852
1778.73	0.839
1787.76	0.8293
1796.78	0.8451
1805.81	0.8749
1814.83	0.8816
1823.86	0.8864
1832.88	0.8868
1841.91	0.8834
1850.93	0.8773
1859.96	0.8722
1868.98	0.871
1878.01	0.8719
1887.03	0.8733
1896.05	0.8748
1905.08	0.8759
1914.1	0.877
1923.13	0.8776
1932.15	0.878
1941.18	0.8784
1950.2	0.8783
1959.23	0.8781
1968.25	0.8768
1977.28	0.8753
1986.3	0.8736
1995.33	0.8734
2004.35	0.873
2013.38	0.8726
2022.4	0.8722
2031.43	0.8718
2040.45	0.8718
2049.47	0.872
2058.5	0.872
2067.52	0.872
2076.55	0.872
2085.57	0.872
2094.6	0.8724
2103.62	0.8731
2112.65	0.8739
2121.67	0.8746
2130.7	0.8751
2139.72	0.8756
2148.75	0.8761
2157.77	0.8766
2166.8	0.8771
2175.82	0.8774
2184.84	0.8776
2193.87	0.8779
2202.89	0.8781
2211.92	0.8783
2220.94	0.8785
2229.97	0.8787
2238.99	0.8795
2248.02	0.8804
2257.04	0.8811
2266.07	0.8818
2275.09	0.8825
2284.12	0.883
2293.14	0.8834
2302.17	0.8837
2311.19	0.8831
2320.21	0.8826
2329.24	0.8819
2338.26	0.8808
2347.29	0.8797
2356.31	0.8786
2365.34	0.8776
2374.36	0.8737
2383.39	0.8694
2392.41	0.8656
2401.44	0.8654
2410.46	0.8658
2419.49	0.866
2428.51	0.8659
2437.54	0.8661
2446.56	0.8663
2455.59	0.8664
2464.61	0.866
2473.63	0.865
2482.66	0.8628
2491.68	0.8589
2500.71	0.8564
2509.73	0.8553
2518.76	0.8548
2527.78	0.8533
2536.81	0.852
2545.83	0.8516
2554.86	0.8523
2563.88	0.8533
2572.91	0.855
2581.93	0.8563
2590.96	0.8571
2599.98	0.8567
2609	0.8557
2618.03	0.8547
2627.05	0.8532
2636.08	0.8516
2645.1	0.8487
2654.13	0.8447
2663.15	0.8402
2672.18	0.8358
2681.2	0.8308
2690.23	0.8267
2699.25	0.8233
2708.28	0.8221
2717.3	0.8235
2726.33	0.8249
2735.35	0.8242
2744.37	0.8229
2753.4	0.8207
2762.42	0.8185
2771.45	0.8158
2780.47	0.8132
2789.5	0.811
2798.52	0.8087
2807.55	0.8061
2816.57	0.8037
2825.6	0.8029
2834.62	0.8023
2843.65	0.8008
2852.67	0.7999
2861.7	0.7985
2870.72	0.7951
2879.75	0.789
2888.77	0.784
2897.79	0.7812
2906.82	0.7796
2915.84	0.7784
2924.87	0.7786
2933.89	0.7787
2942.92	0.7786
2951.94	0.7763
2960.97	0.769
2969.99	0.7597
2979.02	0.7516
2988.04	0.7496
2997.07	0.7528
3006.09	0.7569
3015.12	0.7579
3024.14	0.7515
3033.16	0.7444
3042.19	0.7323
3051.21	0.7045
3060.24	0.6896
3069.26	0.6934
3078.29	0.716
3087.31	0.7574
3096.34	0.7728
3105.36	0.7947
3114.39	0.7986
3123.41	0.7994
3132.44	0.8002
3141.46	0.8
3150.49	0.8002
3159.51	0.8004
3168.53	0.8005
3177.56	0.8005
3186.58	0.8003
3195.61	0.7996
3204.63	0.7986
3213.66	0.7945
3222.68	0.7868
3231.71	0.7847
3240.73	0.7848
3249.76	0.7854
3258.78	0.7852
3267.81	0.7837
3276.83	0.7817
3285.86	0.7791
3294.88	0.7761
3303.9	0.7723
3312.93	0.7685
3321.95	0.7646
3330.98	0.7603
3340	0.7557
3349.03	0.7503
3358.05	0.7441
3367.08	0.7375
3376.1	0.7275
3385.13	0.7174
3394.15	0.7097
3403.18	0.7035
3412.2	0.701
3421.23	0.7015
3430.25	0.7046
3439.28	0.7087
3448.3	0.7118
3457.32	0.7156
3466.35	0.72
3475.37	0.7244
3484.4	0.7287
3493.42	0.7327
3502.45	0.7364
3511.47	0.7403
3520.5	0.7444
3529.52	0.7491
3538.55	0.7548
3547.57	0.7611
3556.6	0.7656
3565.62	0.7695
3574.65	0.7734
3583.67	0.7803
3592.69	0.7861
3601.72	0.7897
3610.74	0.7928
3619.77	0.7954
3628.79	0.7974
3637.82	0.7988
3646.84	0.8001
3655.87	0.8013
3664.89	0.803
3673.92	0.8042
3682.94	0.8049
3691.97	0.8054
3700.99	0.8058
3710.02	0.8061
3719.04	0.8065
3728.06	0.8067
3737.09	0.8064
3746.11	0.806
3755.14	0.8057
3764.16	0.8052
3773.19	0.8047
3782.21	0.8042
3791.24	0.8046
3800.26	0.805
3809.29	0.8055
3818.31	0.806
3827.34	0.8066
3836.36	0.8071
3845.39	0.8076
3854.41	0.808
3863.44	0.8084
3872.46	0.8085
3881.48	0.8084
3890.51	0.8083
3899.53	0.8081
3908.56	0.808
3917.58	0.8078
3926.61	0.8071
3935.63	0.8064
3944.66	0.806
3953.68	0.806
3962.71	0.8061
3971.73	0.8068
3980.76	0.8074
3989.78	0.808
3998.81	0.8087
4007.83	0.8093
