Infrared Spectrum: Formamide, N-(4-amino-6-(benzylthio)-5-pyrimidinyl)-N-ethyl-
Formula: C14 H16 N4 O S
CAS: 92296-30-5
State: SOLID (0.8 mg / 650 mg KBr DISC)
Class: COBLENTZ III
Instrument: PERKIN-ELMER 221 (GRATING)
Instrument parameters: FILTER AT 980 CM^-^1. GRATING 4000-1428 CM^-^1, NaCl PRISM 1428-650 CM^-^1
Sampling: TRANSMISSION
Resolution: 2
Origin: SOUTHERN RESEARCH INSTITUTE
1/CM	TRANSMITTANCE
614	0.9269
623.016	0.9257
632.031	0.9237
641.047	0.8757
650.062	0.8675
659.078	0.9372
668.094	0.9327
677.109	0.9234
686.125	0.8887
695.14	0.6707
704.156	0.8437
713.172	0.7246
722.187	0.5438
731.203	0.8263
740.218	0.7607
749.234	0.8683
758.25	0.8856
767.265	0.8574
776.281	0.837
785.296	0.8267
794.312	0.6166
803.328	0.7243
812.343	0.7386
821.359	0.6827
830.374	0.9547
839.39	0.9563
848.406	0.952
857.421	0.9454
866.437	0.9346
875.452	0.9209
884.468	0.9188
893.484	0.9162
902.499	0.8999
911.515	0.8761
920.53	0.7299
929.546	0.6972
938.562	0.8754
947.577	0.837
956.593	0.5484
965.608	0.6687
974.624	0.9141
983.64	0.9147
992.655	0.9003
1001.67	0.871
1010.69	0.8258
1019.7	0.8605
1028.72	0.8152
1037.73	0.8479
1046.75	0.82
1055.76	0.7178
1064.78	0.7651
1073.8	0.8149
1082.81	0.8101
1091.83	0.7955
1100.84	0.7933
1109.86	0.7534
1118.87	0.6598
1127.89	0.6537
1136.9	0.8041
1145.92	0.7885
1154.94	0.776
1163.95	0.7599
1172.97	0.723
1181.98	0.6703
1191	0.6955
1200.01	0.6381
1209.03	0.7041
1218.05	0.7202
1227.06	0.6841
1236.08	0.6394
1245.09	0.6187
1254.11	0.4637
1263.12	0.5282
1272.14	0.6369
1281.15	0.5157
1290.17	0.7149
1299.19	0.727
1308.2	0.7208
1317.22	0.6805
1326.23	0.6228
1335.25	0.4778
1344.26	0.5228
1353.28	0.3627
1362.3	0.4907
1371.31	0.4987
1380.33	0.3769
1389.34	0.66
1398.36	0.703
1407.37	0.6056
1416.39	0.5149
1425.4	0.7193
1434.42	0.702
1443.44	0.6368
1452.45	0.5474
1461.47	0.6455
1470.48	0.6528
1479.5	0.5937
1488.51	0.4675
1497.53	0.552
1506.54	0.6691
1515.56	0.6308
1524.58	0.5745
1533.59	0.4475
1542.61	0.3318
1551.62	0.1768
1560.64	0.1562
1569.65	0.2882
1578.67	0.4881
1587.69	0.6879
1596.7	0.7214
1605.72	0.711
1614.73	0.672
1623.75	0.6217
1632.76	0.5749
1641.78	0.5017
1650.79	0.2783
1659.81	0.1845
1668.83	0.2607
1677.84	0.1369
1686.86	0.1847
1695.87	0.3678
1704.89	0.6131
1713.9	0.6406
1722.92	0.8083
1731.93	0.9048
1740.95	0.9422
1749.97	0.9609
1758.98	0.992
1768	1.0051
1777.01	1.0122
1786.03	1.014
1795.04	1.0147
1804.06	1.0152
1813.08	1.0157
1822.09	1.0157
1831.11	1.0153
1840.12	1.0138
1849.14	1.0112
1858.15	1.0086
1867.17	1.0071
1876.18	1.0046
1885.2	0.9988
1894.22	0.9945
1903.23	0.9934
1912.25	0.9916
1921.26	0.984
1930.28	0.9704
1939.29	0.9601
1948.31	0.9619
1957.32	0.9622
1966.34	0.9614
1975.36	0.961
1984.37	0.961
1993.39	0.9622
2002.4	0.9451
2011.42	0.9417
2020.43	0.9385
2029.45	0.9345
2038.47	0.9319
2047.48	0.9278
2056.5	0.9232
2065.51	0.9218
2074.53	0.9202
2083.54	0.9182
2092.56	0.9162
2101.57	0.9139
2110.59	0.9111
2119.61	0.908
2128.62	0.9063
2137.64	0.9054
2146.65	0.9053
2155.67	0.9045
2164.68	0.9024
2173.7	0.8998
2182.71	0.8966
2191.73	0.895
2200.75	0.8937
2209.76	0.8925
2218.78	0.8914
2227.79	0.8903
2236.81	0.8892
2245.82	0.8869
2254.84	0.8846
2263.86	0.8822
2272.87	0.8765
2281.89	0.8743
2290.9	0.8713
2299.92	0.8681
2308.93	0.8637
2317.95	0.8593
2326.96	0.8554
2335.98	0.8534
2345	0.8527
2354.01	0.8528
2363.03	0.8538
2372.04	0.8551
2381.06	0.8558
2390.07	0.8558
2399.09	0.8547
2408.1	0.8528
2417.12	0.8508
2426.14	0.8489
2435.15	0.8474
2444.17	0.8463
2453.18	0.8469
2462.2	0.8513
2471.21	0.8553
2480.23	0.8375
2489.25	0.8363
2498.26	0.8356
2507.28	0.8339
2516.29	0.831
2525.31	0.8292
2534.32	0.8278
2543.34	0.8252
2552.35	0.8223
2561.37	0.819
2570.39	0.8158
2579.4	0.8127
2588.42	0.8075
2597.43	0.7984
2606.45	0.7921
2615.46	0.7852
2624.48	0.781
2633.49	0.777
2642.51	0.7724
2651.53	0.7674
2660.54	0.7621
2669.56	0.7558
2678.57	0.7502
2687.59	0.7468
2696.6	0.7436
2705.62	0.7461
2714.64	0.75
2723.65	0.7539
2732.67	0.7541
2741.68	0.7512
2750.7	0.7472
2759.71	0.7426
2768.73	0.7388
2777.74	0.7358
2786.76	0.7329
2795.78	0.7287
2804.79	0.7232
2813.81	0.7119
2822.82	0.7023
2831.84	0.6972
2840.85	0.6911
2849.87	0.681
2858.89	0.6576
2867.9	0.6445
2876.92	0.6411
2885.93	0.6412
2894.95	0.6399
2903.96	0.6375
2912.98	0.6303
2921.99	0.6104
2931.01	0.6077
2940.03	0.6112
2949.04	0.6128
2958.06	0.609
2967.07	0.5814
2976.09	0.5646
2985.1	0.5625
2994.12	0.5609
3003.13	0.559
3012.15	0.5536
3021.17	0.5346
3030.18	0.5241
3039.2	0.5226
3048.21	0.5115
3057.23	0.4956
3066.24	0.4808
3075.26	0.4602
3084.28	0.4469
3093.29	0.4418
3102.31	0.4285
3111.32	0.4021
3120.34	0.3889
3129.35	0.3874
3138.37	0.3919
3147.38	0.4045
3156.4	0.4422
3165.42	0.4727
3174.43	0.5154
3183.45	0.558
3192.46	0.5839
3201.48	0.6225
3210.49	0.638
3219.51	0.6502
3228.52	0.6702
3237.54	0.6837
3246.56	0.6852
3255.57	0.6798
3264.59	0.6586
3273.6	0.6389
3282.62	0.6189
3291.63	0.5927
3300.65	0.5483
3309.67	0.489
3318.68	0.4901
3327.7	0.487
3336.71	0.4721
3345.73	0.4696
3354.74	0.4586
3363.76	0.425
3372.77	0.3251
3381.79	0.2833
3390.81	0.295
3399.82	0.3648
3408.84	0.4663
3417.85	0.6158
3426.87	0.6499
3435.88	0.6678
3444.9	0.6785
3453.91	0.7008
3462.93	0.7086
3471.95	0.7156
3480.96	0.7215
3489.98	0.7305
3498.99	0.7364
3508.01	0.7393
3517.02	0.7418
3526.04	0.744
3535.06	0.7462
3544.07	0.7484
3553.09	0.7509
3562.1	0.7551
3571.12	0.7593
3580.13	0.7649
3589.15	0.771
3598.16	0.7768
3607.18	0.7826
3616.2	0.7865
3625.21	0.7892
3634.23	0.7898
3643.24	0.7899
3652.26	0.7897
3661.27	0.7895
3670.29	0.7892
3679.3	0.7888
3688.32	0.7884
3697.34	0.788
3706.35	0.7873
3715.37	0.7865
3724.38	0.7857
3733.4	0.7848
3742.41	0.7837
3751.43	0.7827
3760.45	0.7822
3769.46	0.7821
3778.48	0.7815
3787.49	0.7806
3796.51	0.7759
3805.52	0.7727
3814.54	0.7712
3823.55	0.7701
3832.57	0.769
3841.59	0.768
3850.6	0.7671
3859.62	0.7659
3868.63	0.7647
3877.65	0.7634
3886.66	0.7623
3895.68	0.7612
3904.69	0.76
3913.71	0.7589
3922.73	0.7581
3931.74	0.7576
3940.76	0.7571
3949.77	0.7565
3958.79	0.7562
3967.8	0.7561
3976.82	0.756
3985.84	0.7554
3994.85	0.7545
4003.87	0.7536
