Infrared Spectrum: 2-PYRAZOLINE-5-ONE, 4,4-DIMETHYL-3-ISOPROPYL-1-PHENYL-
Formula: C14 H18 N2 O
CAS: 92292-40-5
State: SOLID (MELT)
Melting point: 65-67 C
Class: COBLENTZ
Instrument: Not specified, most likely a prism, grating, or hybrid spectrometer.
Sampling: TRANSMISSION
Resolution: 4
Origin: TENNESSEE EASTMAN COMPANY, RESEARCH LABORATORIES
MICROMETERS	TRANSMITTANCE
2.014	0.96
2.05468	0.96
2.09535	0.958
2.13603	0.952
2.17671	0.948
2.21739	0.948
2.25806	0.931
2.29874	0.928
2.33942	0.929
2.38009	0.938
2.42077	0.938
2.46145	0.933
2.50212	0.938
2.5428	0.945
2.58348	0.946
2.62416	0.943
2.66483	0.946
2.70551	0.94
2.74619	0.943
2.78686	0.946
2.82754	0.95
2.86822	0.946
2.90889	0.945
2.94957	0.902
2.99025	0.931
3.03093	0.936
3.0716	0.936
3.11228	0.929
3.15296	0.914
3.19363	0.912
3.23431	0.895
3.27499	0.768
3.31566	0.761
3.35634	0.238
3.39702	0.477
3.4377	0.535
3.47837	0.573
3.51905	0.857
3.55973	0.905
3.6004	0.931
3.64108	0.933
3.68176	0.933
3.72244	0.934
3.76311	0.943
3.80379	0.945
3.84447	0.945
3.88514	0.94
3.92582	0.945
3.9665	0.948
4.00717	0.946
4.04785	0.938
4.08853	0.936
4.12921	0.95
4.16988	0.957
4.21056	0.962
4.25124	0.948
4.29191	0.94
4.33259	0.936
4.37327	0.953
4.41394	0.953
4.45462	0.96
4.4953	0.962
4.53598	0.964
4.57665	0.964
4.61733	0.964
4.65801	0.96
4.69868	0.958
4.73936	0.967
4.78004	0.972
4.82071	0.974
4.86139	0.976
4.90207	0.972
4.94275	0.964
4.98342	0.97
5.0241	0.972
5.06478	0.955
5.10545	0.931
5.14613	0.924
5.18681	0.952
5.22749	0.964
5.26816	0.96
5.30884	0.926
5.34952	0.919
5.39019	0.952
5.43087	0.95
5.47155	0.936
5.51222	0.907
5.5529	0.88
5.59358	0.861
5.63426	0.768
5.67493	0.65
5.71561	0.643
5.75629	0.361
5.79696	0.042
5.83764	0.037
5.87832	0.26
5.91899	0.563
5.95967	0.703
6.00035	0.714
6.04103	0.806
6.0817	0.808
6.12238	0.811
6.16306	0.784
6.20373	0.575
6.24441	0.16
6.28509	0.472
6.32576	0.756
6.36644	0.856
6.40712	0.864
6.4478	0.873
6.48847	0.799
6.52915	0.719
6.56983	0.563
6.6105	0.061
6.65118	0.094
6.69186	0.272
6.73254	0.457
6.77321	0.272
6.81389	0.303
6.85457	0.484
6.89524	0.517
6.93592	0.7
6.9766	0.761
7.01727	0.741
7.05795	0.736
7.09863	0.691
7.13931	0.527
7.17998	0.424
7.22066	0.167
7.26134	0.14
7.30201	0.243
7.34269	0.248
7.38337	0.154
7.42404	0.114
7.46472	0.328
7.5054	0.332
7.54608	0.412
7.58675	0.525
7.62743	0.577
7.66811	0.652
7.70878	0.738
7.74946	0.815
7.79014	0.844
7.83081	0.748
7.87149	0.544
7.91217	0.683
7.95285	0.755
7.99352	0.712
8.0342	0.719
8.07488	0.811
8.11555	0.861
8.15623	0.881
8.19691	0.886
8.23759	0.885
8.27826	0.869
8.31894	0.852
8.35962	0.832
8.40029	0.743
8.44097	0.583
8.48165	0.589
8.52232	0.727
8.563	0.698
8.60368	0.604
8.64436	0.393
8.68503	0.198
8.72571	0.224
8.76639	0.44
8.80706	0.604
8.84774	0.688
8.88842	0.703
8.92909	0.662
8.96977	0.597
9.01045	0.565
9.05113	0.587
9.0918	0.529
9.13248	0.426
9.17316	0.472
9.21383	0.433
9.25451	0.28
9.29519	0.404
9.33586	0.592
9.37654	0.611
9.41722	0.402
9.4579	0.232
9.49857	0.479
9.53925	0.654
9.57993	0.712
9.6206	0.726
9.66128	0.691
9.70196	0.726
9.74264	0.744
9.78331	0.772
9.82399	0.784
9.86467	0.779
9.90534	0.777
9.94602	0.791
9.9867	0.792
10.0274	0.803
10.0681	0.787
10.1087	0.797
10.1494	0.803
10.1901	0.803
10.2308	0.785
10.2714	0.719
10.3121	0.7
10.3528	0.743
10.3935	0.756
10.4341	0.763
10.4748	0.707
10.5155	0.602
10.5562	0.623
10.5969	0.722
10.6375	0.785
10.6782	0.801
10.7189	0.811
10.7596	0.811
10.8002	0.808
10.8409	0.803
10.8816	0.768
10.9223	0.625
10.9629	0.565
11.0036	0.7
11.0443	0.804
11.085	0.832
11.1257	0.833
11.1663	0.799
11.207	0.696
11.2477	0.732
11.2884	0.791
11.329	0.77
11.3697	0.654
11.4104	0.736
11.4511	0.813
11.4917	0.845
11.5324	0.859
11.5731	0.861
11.6138	0.866
11.6545	0.869
11.6951	0.871
11.7358	0.871
11.7765	0.871
11.8172	0.868
11.8578	0.856
11.8985	0.852
11.9392	0.863
11.9799	0.861
12.0205	0.868
12.0612	0.868
12.1019	0.866
12.1426	0.864
12.1833	0.854
12.2239	0.861
12.2646	0.863
12.3053	0.866
12.346	0.864
12.3866	0.863
12.4273	0.863
12.468	0.856
12.5087	0.852
12.5494	0.851
12.59	0.837
12.6307	0.82
12.6714	0.789
12.7121	0.702
12.7527	0.654
12.7934	0.734
12.8341	0.765
12.8748	0.746
12.9154	0.667
12.9561	0.515
12.9968	0.289
13.0375	0.172
13.0782	0.2
13.1188	0.275
13.1595	0.409
13.2002	0.549
13.2409	0.636
13.2815	0.662
13.3222	0.662
13.3629	0.696
13.4036	0.731
13.4442	0.739
13.4849	0.698
13.5256	0.561
13.5663	0.321
13.607	0.342
13.6476	0.52
13.6883	0.66
13.729	0.726
13.7697	0.755
13.8103	0.77
13.851	0.78
13.8917	0.785
13.9324	0.789
13.973	0.785
14.0137	0.777
14.0544	0.763
14.0951	0.72
14.1358	0.652
14.1764	0.589
14.2171	0.553
14.2578	0.53
14.2985	0.44
14.3391	0.352
14.3798	0.316
14.4205	0.376
14.4612	0.493
14.5018	0.58
14.5425	0.659
14.5832	0.698
14.6239	0.71
14.6646	0.719
14.7052	0.72
14.7459	0.722
14.7866	0.726
14.8273	0.731
14.8679	0.732
14.9086	0.727
14.9493	0.72
14.99	0.72
15.0306	0.724
15.0713	0.724
15.112	0.724
15.1527	0.724
15.1934	0.719
15.234	0.715
15.2747	0.71
15.3154	0.703
15.3561	0.691
15.3967	0.679
15.4374	0.652
15.4781	0.614
15.5188	0.575
15.5595	0.553
15.6001	0.556
15.6408	0.582
15.6815	0.613
15.7222	0.633
15.7628	0.643
15.8035	0.65
15.8442	0.654
15.8849	0.654
15.9255	0.652
15.9662	0.652
