Infrared Spectrum: PURINE, 6-AZIRIDINYL-9-BENZYL-8-CHLORO-,
Formula: C14 H12 Cl N5
CAS: 92291-24-2
State: SOLID (1 mg / 650 mg KBr DISC)
Class: COBLENTZ III
Instrument: PERKIN-ELMER 221 (GRATING)
Instrument parameters: FILTER CHANGES AT 2490, 980 CM^-^1, GRATING FOR 4000-1428 CM^-^1, NaCl PRISM FOR 1428-650 CM^-^1
Sampling: TRANSMISSION
Resolution: 4
Origin: SOUTHERN RESEARCH INST.
1/CM	TRANSMITTANCE
604.29	0.793
613.861	0.793
623.432	0.789
633.003	0.782
642.574	0.752
652.145	0.632
661.716	0.463
671.287	0.751
680.858	0.503
690.429	0.369
700	0.705
709.571	0.413
719.142	0.251
728.713	0.796
738.284	0.866
747.855	0.861
757.426	0.855
766.996	0.841
776.567	0.773
786.138	0.679
795.709	0.802
805.28	0.665
814.851	0.803
824.422	0.841
833.993	0.708
843.564	0.668
853.135	0.847
862.706	0.842
872.277	0.801
881.848	0.75
891.419	0.606
900.99	0.757
910.561	0.824
920.132	0.823
929.703	0.816
939.274	0.784
948.845	0.748
958.416	0.657
967.987	0.781
977.558	0.777
987.129	0.77
996.7	0.747
1006.27	0.712
1015.84	0.632
1025.41	0.721
1034.98	0.611
1044.55	0.759
1054.13	0.744
1063.7	0.705
1073.27	0.66
1082.84	0.732
1092.41	0.715
1101.98	0.694
1111.55	0.676
1121.12	0.659
1130.69	0.599
1140.26	0.546
1149.84	0.607
1159.41	0.511
1168.98	0.367
1178.55	0.694
1188.12	0.574
1197.69	0.498
1207.26	0.72
1216.83	0.686
1226.4	0.644
1235.97	0.584
1245.54	0.476
1255.12	0.396
1264.69	0.595
1274.26	0.589
1283.83	0.524
1293.4	0.451
1302.97	0.287
1312.54	0.276
1322.11	0.433
1331.68	0.296
1341.25	0.524
1350.83	0.275
1360.4	0.425
1369.97	0.452
1379.54	0.77
1389.11	0.739
1398.68	0.611
1408.25	0.442
1417.82	0.615
1427.39	0.573
1436.96	0.373
1446.54	0.193
1456.11	0.538
1465.68	0.505
1475.25	0.511
1484.82	0.684
1494.39	0.797
1503.96	0.772
1513.53	0.745
1523.1	0.705
1532.67	0.665
1542.25	0.604
1551.82	0.498
1561.39	0.375
1570.96	0.253
1580.53	0.194
1590.1	0.161
1599.67	0.309
1609.24	0.525
1618.81	0.709
1628.38	0.784
1637.95	0.796
1647.53	0.84
1657.1	0.879
1666.67	0.884
1676.24	0.875
1685.81	0.867
1695.38	0.857
1704.95	0.875
1714.52	0.863
1724.09	0.845
1733.66	0.837
1743.24	0.82
1752.81	0.79
1762.38	0.8
1771.95	0.831
1781.52	0.836
1791.09	0.832
1800.66	0.83
1810.23	0.828
1819.8	0.828
1829.37	0.829
1838.95	0.826
1848.52	0.822
1858.09	0.811
1867.66	0.798
1877.23	0.8
1886.8	0.803
1896.37	0.8
1905.94	0.792
1915.51	0.77
1925.08	0.736
1934.65	0.778
1944.23	0.781
1953.8	0.785
1963.37	0.784
1972.94	0.781
1982.51	0.779
1992.08	0.778
2001.65	0.777
2011.22	0.775
2020.79	0.773
2030.36	0.773
2039.94	0.766
2049.51	0.761
2059.08	0.759
2068.65	0.758
2078.22	0.757
2087.79	0.756
2097.36	0.755
2106.93	0.754
2116.5	0.752
2126.07	0.747
2135.65	0.745
2145.22	0.744
2154.79	0.74
2164.36	0.738
2173.93	0.738
2183.5	0.738
2193.07	0.737
2202.64	0.735
2212.21	0.735
2221.78	0.736
2231.35	0.735
2240.93	0.732
2250.5	0.728
2260.07	0.723
2269.64	0.721
2279.21	0.72
2288.78	0.718
2298.35	0.714
2307.92	0.708
2317.49	0.703
2327.06	0.699
2336.64	0.7
2346.21	0.698
2355.78	0.698
2365.35	0.7
2374.92	0.701
2384.49	0.701
2394.06	0.701
2403.63	0.701
2413.2	0.7
2422.77	0.699
2432.35	0.699
2441.92	0.698
2451.49	0.698
2461.06	0.698
2470.63	0.697
2480.2	0.696
2489.77	0.689
2499.34	0.674
2508.91	0.674
2518.48	0.674
2528.05	0.674
2537.63	0.673
2547.2	0.672
2556.77	0.671
2566.34	0.669
2575.91	0.667
2585.48	0.664
2595.05	0.663
2604.62	0.661
2614.19	0.66
2623.76	0.659
2633.34	0.659
2642.91	0.659
2652.48	0.657
2662.05	0.656
2671.62	0.655
2681.19	0.655
2690.76	0.654
2700.33	0.649
2709.9	0.646
2719.47	0.645
2729.05	0.644
2738.62	0.642
2748.19	0.642
2757.76	0.639
2767.33	0.637
2776.9	0.634
2786.47	0.633
2796.04	0.63
2805.61	0.629
2815.18	0.627
2824.75	0.626
2834.33	0.621
2843.9	0.617
2853.47	0.615
2863.04	0.614
2872.61	0.613
2882.18	0.607
2891.75	0.591
2901.32	0.588
2910.89	0.593
2920.46	0.579
2930.04	0.568
2939.61	0.564
2949.18	0.589
2958.75	0.588
2968.32	0.582
2977.89	0.574
2987.46	0.528
2997.03	0.509
3006.6	0.567
3016.17	0.569
3025.75	0.543
3035.32	0.55
3044.89	0.6
3054.46	0.57
3064.03	0.539
3073.6	0.606
3083.17	0.556
3092.74	0.566
3102.31	0.619
3111.88	0.621
3121.45	0.619
3131.03	0.618
3140.6	0.615
3150.17	0.612
3159.74	0.611
3169.31	0.611
3178.88	0.61
3188.45	0.608
3198.02	0.606
3207.59	0.604
3217.16	0.602
3226.74	0.598
3236.31	0.596
3245.88	0.596
3255.45	0.595
3265.02	0.593
3274.59	0.59
3284.16	0.585
3293.73	0.581
3303.3	0.58
3312.87	0.578
3322.45	0.576
3332.02	0.569
3341.59	0.561
3351.16	0.556
3360.73	0.553
3370.3	0.55
3379.87	0.548
3389.44	0.547
3399.01	0.546
3408.58	0.545
3418.16	0.544
3427.73	0.545
3437.3	0.547
3446.87	0.547
3456.44	0.549
3466.01	0.55
3475.58	0.552
3485.15	0.554
3494.72	0.555
3504.29	0.557
3513.86	0.558
3523.44	0.558
3533.01	0.559
3542.58	0.561
3552.15	0.562
3561.72	0.563
3571.29	0.565
3580.86	0.566
3590.43	0.568
3600	0.57
3609.57	0.571
3619.15	0.571
3628.72	0.571
3638.29	0.572
3647.86	0.572
3657.43	0.573
3667	0.572
3676.57	0.57
3686.14	0.569
3695.71	0.569
3705.28	0.567
3714.86	0.566
3724.43	0.564
3734	0.563
3743.57	0.563
3753.14	0.564
3762.71	0.566
3772.28	0.564
3781.85	0.562
3791.42	0.56
3800.99	0.559
3810.56	0.558
3820.14	0.558
3829.71	0.558
3839.28	0.557
3848.85	0.557
3858.42	0.557
3867.99	0.557
3877.56	0.557
3887.13	0.557
3896.7	0.557
3906.27	0.556
3915.85	0.556
3925.42	0.556
3934.99	0.556
3944.56	0.556
3954.13	0.556
3963.7	0.556
3973.27	0.557
3982.84	0.558
3992.41	0.558
4001.98	0.558
