Infrared Spectrum: 2-Methyl-3-octanone
Formula: C 9 H 18 O
CAS: 923-28-4
State: gas
Instrument: HP-GC/MS/IRD
Origin: NIST Mass Spectrometry Data Center
1/CM	ABSORBANCE
550	0.0004367
562	6.16e-05
574	0.0002156
586	0.0002266
598	0.0002299
610	0.0002904
622	0.0001529
634	3.08e-05
646	2.86e-05
658	0.0002123
670	0.0005566
682	0.0012309
694	0.0017644
706	0.0014861
718	0.0016764
730	0.002519
742	0.0018392
754	0.0009427
766	0.0003212
778	0.0001925
790	0.0002365
802	0.0002079
814	0.0002002
826	0.0001276
838	0.0001188
850	0.0001463
862	0.00011
874	0.0001529
886	0.0001716
898	0.0002761
910	0.0003575
922	0.0005643
934	0.0010527
946	0.001815
958	0.0023595
970	0.0018458
982	0.0012199
994	0.0011077
1006	0.0013387
1018	0.0013607
1030	0.0012815
1042	0.0015972
1054	0.0014762
1066	0.0011066
1078	0.0009724
1090	0.0009658
1102	0.0010967
1114	0.0011121
1126	0.0010109
1138	0.0008085
1150	0.0005808
1162	0.0004532
1174	0.0005126
1186	0.0005522
1198	0.000627
1210	0.0006512
1222	0.0005511
1234	0.000495
1246	0.0004213
1258	0.0003762
1270	0.0004554
1282	0.0005643
1294	0.0006688
1306	0.0006952
1318	0.0006919
1330	0.0008822
1342	0.0012496
1354	0.0014333
1366	0.0014432
1378	0.0015433
1390	0.0015807
1402	0.0009966
1414	0.000913
1426	0.0010758
1438	0.001419
1450	0.00187
1462	0.0023826
1474	0.0021637
1486	0.001551
1498	0.0012793
1510	0.000539
1522	0.0002915
1534	0.0002211
1546	0.0001947
1558	0.0001947
1570	0.0002387
1582	0.0003806
1594	0.0006094
1606	0.0004796
1618	0.0002629
1630	0.0002321
1642	0.0002772
1654	0.0003784
1666	0.000484
1678	0.0006138
1690	0.0010813
1702	0.0023793
1714	0.0050325
1726	0.0061677
1738	0.0033539
1750	0.0012067
1762	0.000572
1774	0.0003641
1786	0.0003113
1798	0.0002332
1810	0.0001463
1822	9.35e-05
1834	0.0001001
1846	0.0001199
1858	0.0001518
1870	0.0001529
1882	0.0001232
1894	7.81e-05
1906	6.82e-05
1918	9.35e-05
1930	0.0001496
1942	0.0001782
1954	0.000143
1966	4.29e-05
1978	3.19e-05
1990	4.84e-05
2002	5.17e-05
2014	2.75e-05
2026	1.98e-05
2038	2.64e-05
2050	1.1e-05
2062	1.54e-05
2074	1.43e-05
2086	1.1e-05
2098	0
2110	1.43e-05
2122	9.9e-06
2134	1.87e-05
2146	1.43e-05
2158	1.98e-05
2170	2.42e-05
2182	3.63e-05
2194	1.87e-05
2206	1.1e-05
2218	9.9e-06
2230	2.09e-05
2242	2.97e-05
2254	2.09e-05
2266	4.07e-05
2278	2.53e-05
2290	1.76e-05
2302	2.2e-05
2314	4.29e-05
2326	4.07e-05
2338	3.3e-05
2350	3.74e-05
2362	4.73e-05
2374	3.85e-05
2386	3.63e-05
2398	3.19e-05
2410	4.51e-05
2422	3.85e-05
2434	1.87e-05
2446	1.76e-05
2458	3.63e-05
2470	2.09e-05
2482	4.07e-05
2494	4.4e-06
2506	1.32e-05
2518	6.6e-06
2530	1.54e-05
2542	1.32e-05
2554	2.97e-05
2566	4.07e-05
2578	3.85e-05
2590	3.85e-05
2602	5.39e-05
2614	4.73e-05
2626	3.41e-05
2638	6.71e-05
2650	6.6e-05
2662	6.05e-05
2674	7.37e-05
2686	9.79e-05
2698	8.36e-05
2710	6.93e-05
2722	0.0001155
2734	0.0002255
2746	0.0002574
2758	0.000209
2770	0.0002255
2782	0.0002849
2794	0.000352
2806	0.00044
2818	0.0006215
2830	0.0008426
2842	0.0012683
2854	0.0023672
2866	0.0040249
2878	0.005148
2890	0.0053031
2902	0.005335
2914	0.0064691
2926	0.0088902
2938	0.0101585
2950	0.009438
2962	0.0099264
2974	0.0106733
2986	0.0063393
2998	0.0031691
3010	0.0023628
3022	0.0028072
3034	0.0030008
3046	0.0020922
3058	0.0020108
3070	0.0024299
3082	0.0019228
3094	0.0013772
3106	0.0008294
3118	0.000451
3130	0.0002871
3142	0.0002343
3154	0.0002123
3166	0.0001881
3178	0.0001463
3190	0.0001111
3202	9.02e-05
3214	6.82e-05
3226	6.05e-05
3238	5.28e-05
3250	2.2e-05
3262	2.09e-05
3274	2.64e-05
3286	1.98e-05
3298	3.74e-05
3310	1.76e-05
3322	4.29e-05
3334	7.7e-06
3346	1.1e-06
3358	4.73e-05
3370	4.18e-05
3382	3.3e-05
3394	7.04e-05
3406	8.8e-05
3418	0.0001221
3430	0.0001133
3442	0.0001056
3454	5.28e-05
3466	7.04e-05
3478	2.31e-05
3490	6.38e-05
3502	2.53e-05
3514	4.07e-05
3526	6.6e-05
3538	4.95e-05
3550	8.47e-05
3562	5.17e-05
3574	4.4e-05
3586	4.62e-05
3598	5.61e-05
3610	5.72e-05
3622	0.0001177
3634	7.26e-05
3646	9.46e-05
3658	7.15e-05
3670	7.92e-05
3682	9.46e-05
3694	0.0001034
3706	7.59e-05
3718	8.58e-05
3730	9.02e-05
3742	8.8e-05
3754	9.35e-05
3766	0.0001188
3778	0.0001078
3790	0.000132
3802	0.000121
3814	7.59e-05
3826	8.69e-05
3838	0.0001177
