Infrared Spectrum: Triazolo [4,5-d]pyrimidine-,3H-v-,7(6H)-thione-, 5-amino-3-butyl-
Formula: C8 H12 N6 S
CAS: 92352-41-5
State: SOLID (0.9 / 650 mg KBr DISC)
Class: COBLENTZ III
Instrument: PERKIN-ELMER 21 (GRATING)
Instrument parameters: FILTER CHANGE ABOUT 1025 CM^-^1
Sampling: TRANSMISSION
Resolution: 2
Origin: SOUTHERN RESEARCH INSTITUTE
1/CM	TRANSMITTANCE
601.216	0.5921
610.239	0.5999
619.263	0.5971
628.286	0.5801
637.309	0.5546
646.332	0.5219
655.356	0.527
664.379	0.5312
673.402	0.5516
682.425	0.5437
691.449	0.5193
700.472	0.485
709.495	0.5148
718.518	0.5949
727.542	0.5807
736.565	0.5389
745.588	0.5521
754.612	0.5458
763.635	0.6183
772.658	0.6748
781.681	0.8015
790.705	0.8094
799.728	0.8113
808.751	0.8109
817.774	0.8256
826.798	0.8287
835.821	0.8277
844.844	0.7995
853.867	0.648
862.891	0.8016
871.914	0.861
880.937	0.8603
889.96	0.86
898.984	0.8593
908.007	0.8559
917.03	0.8505
926.054	0.8404
935.077	0.8254
944.1	0.82
953.123	0.8036
962.147	0.723
971.17	0.6227
980.193	0.7011
989.216	0.7889
998.24	0.7732
1007.26	0.7174
1016.29	0.609
1025.31	0.3128
1034.33	0.5591
1043.36	0.6074
1052.38	0.4776
1061.4	0.5172
1070.43	0.5684
1079.45	0.7512
1088.47	0.7515
1097.5	0.7313
1106.52	0.703
1115.54	0.6435
1124.57	0.6144
1133.59	0.6148
1142.61	0.5662
1151.64	0.5279
1160.66	0.4044
1169.68	0.3598
1178.7	0.2798
1187.73	0.375
1196.75	0.4618
1205.77	0.2592
1214.8	0.1482
1223.82	0.3349
1232.84	0.5712
1241.87	0.6149
1250.89	0.6579
1259.91	0.6179
1268.94	0.6405
1277.96	0.615
1286.98	0.6566
1296.01	0.6946
1305.03	0.6833
1314.05	0.7112
1323.08	0.6908
1332.1	0.5707
1341.12	0.6918
1350.15	0.6998
1359.17	0.519
1368.19	0.4937
1377.22	0.5631
1386.24	0.6661
1395.26	0.7207
1404.29	0.717
1413.31	0.7249
1422.33	0.7277
1431.36	0.6665
1440.38	0.6171
1449.4	0.6439
1458.43	0.5951
1467.45	0.5999
1476.47	0.7562
1485.5	0.7534
1494.52	0.7345
1503.54	0.7029
1512.57	0.6877
1521.59	0.6268
1530.61	0.572
1539.64	0.3765
1548.66	0.2005
1557.68	0.0582
1566.71	0.0404
1575.73	0.0273
1584.75	0.0353
1593.78	0.0276
1602.8	0.1364
1611.82	0.3232
1620.84	0.4136
1629.87	0.3883
1638.89	0.3729
1647.91	0.1782
1656.94	0.1298
1665.96	0.3803
1674.98	0.6139
1684.01	0.8059
1693.03	0.8236
1702.05	0.8428
1711.08	0.8803
1720.1	0.887
1729.12	0.907
1738.15	0.9165
1747.17	0.9186
1756.19	0.9242
1765.22	0.9328
1774.24	0.9352
1783.26	0.9351
1792.29	0.9335
1801.31	0.9309
1810.33	0.9279
1819.36	0.9299
1828.38	0.9382
1837.4	0.9411
1846.43	0.9408
1855.45	0.9401
1864.47	0.9395
1873.5	0.9385
1882.52	0.9365
1891.54	0.934
1900.57	0.9314
1909.59	0.929
1918.61	0.9265
1927.64	0.9211
1936.66	0.9172
1945.68	0.9177
1954.71	0.9231
1963.73	0.9248
1972.75	0.925
1981.78	0.9237
1990.8	0.9218
1999.82	0.9198
2008.85	0.9178
2017.87	0.9162
2026.89	0.9148
2035.92	0.9138
2044.94	0.9138
2053.96	0.9146
2062.99	0.9161
2072.01	0.9146
2081.03	0.9113
2090.05	0.9081
2099.08	0.906
2108.1	0.9048
2117.12	0.9038
2126.15	0.9037
2135.17	0.9046
2144.19	0.9059
2153.22	0.9067
2162.24	0.9064
2171.26	0.9052
2180.29	0.904
2189.31	0.9027
2198.33	0.897
2207.36	0.896
2216.38	0.8972
2225.4	0.8988
2234.43	0.9032
2243.45	0.9026
2252.47	0.9008
2261.5	0.8966
2270.52	0.8922
2279.54	0.8911
2288.57	0.8924
2297.59	0.8953
2306.61	0.9006
2315.64	0.9062
2324.66	0.9078
2333.68	0.9078
2342.71	0.9061
2351.73	0.9032
2360.75	0.8969
2369.78	0.8878
2378.8	0.8782
2387.82	0.8786
2396.85	0.8791
2405.87	0.8795
2414.89	0.88
2423.92	0.8822
2432.94	0.8838
2441.96	0.8838
2450.99	0.8824
2460.01	0.8811
2469.03	0.8799
2478.06	0.8783
2487.08	0.875
2496.1	0.8693
2505.13	0.8639
2514.15	0.8579
2523.17	0.852
2532.19	0.8471
2541.22	0.8439
2550.24	0.8419
2559.26	0.84
2568.29	0.8382
2577.31	0.837
2586.33	0.836
2595.36	0.8349
2604.38	0.8336
2613.4	0.8326
2622.43	0.8318
2631.45	0.8296
2640.47	0.8232
2649.5	0.8158
2658.52	0.8101
2667.54	0.8093
2676.57	0.8108
2685.59	0.8089
2694.61	0.7972
2703.64	0.7846
2712.66	0.7712
2721.68	0.7563
2730.71	0.7525
2739.73	0.75
2748.75	0.7505
2757.78	0.7525
2766.8	0.7532
2775.82	0.7529
2784.85	0.7508
2793.87	0.7444
2802.89	0.7336
2811.92	0.724
2820.94	0.7106
2829.96	0.6718
2838.99	0.6373
2848.01	0.6267
2857.03	0.6333
2866.06	0.6335
2875.08	0.6236
2884.1	0.5878
2893.13	0.5353
2902.15	0.4849
2911.17	0.4605
2920.2	0.4547
2929.22	0.4532
2938.24	0.4548
2947.27	0.4813
2956.29	0.5255
2965.31	0.5618
2974.33	0.5688
2983.36	0.5627
2992.38	0.5481
3001.4	0.5236
3010.43	0.5062
3019.45	0.4877
3028.47	0.4728
3037.5	0.4593
3046.52	0.447
3055.54	0.4318
3064.57	0.3978
3073.59	0.3498
3082.61	0.2993
3091.64	0.2605
3100.66	0.2225
3109.68	0.1852
3118.71	0.1445
3127.73	0.1104
3136.75	0.089
3145.78	0.0859
3154.8	0.0894
3163.82	0.1104
3172.85	0.1504
3181.87	0.1892
3190.89	0.205
3199.92	0.2131
3208.94	0.2167
3217.96	0.2192
3226.99	0.2232
3236.01	0.2297
3245.03	0.2421
3254.06	0.2555
3263.08	0.2557
3272.1	0.2523
3281.13	0.2423
3290.15	0.1815
3299.17	0.1509
3308.2	0.1107
3317.22	0.1171
3326.24	0.1233
3335.27	0.1756
3344.29	0.247
3353.31	0.3049
3362.34	0.3766
3371.36	0.4452
3380.38	0.4839
3389.41	0.5146
3398.43	0.5361
3407.45	0.5557
3416.47	0.5765
3425.5	0.5914
3434.52	0.604
3443.54	0.6217
3452.57	0.6388
3461.59	0.6531
3470.61	0.6645
3479.64	0.6744
3488.66	0.6861
3497.68	0.6965
3506.71	0.7066
3515.73	0.7171
3524.75	0.7271
3533.78	0.7361
3542.8	0.7446
3551.82	0.7637
3560.85	0.7769
3569.87	0.7904
3578.89	0.8036
3587.92	0.814
3596.94	0.8206
3605.96	0.8324
3614.99	0.8401
3624.01	0.8463
3633.03	0.8499
3642.06	0.8516
3651.08	0.8523
3660.1	0.8524
3669.13	0.8525
3678.15	0.8528
3687.17	0.8529
3696.2	0.853
3705.22	0.8527
3714.24	0.8525
3723.27	0.8525
3732.29	0.8526
3741.31	0.8531
3750.34	0.8546
3759.36	0.8567
3768.38	0.8587
3777.41	0.856
3786.43	0.8493
3795.45	0.8434
3804.48	0.8409
3813.5	0.84
3822.52	0.8399
3831.55	0.8402
3840.57	0.8404
3849.59	0.8407
3858.61	0.8408
3867.64	0.8408
3876.66	0.8408
3885.68	0.8411
3894.71	0.8415
3903.73	0.8419
3912.75	0.8419
3921.78	0.8419
3930.8	0.8419
3939.82	0.8418
3948.85	0.8417
3957.87	0.8403
3966.89	0.8387
3975.92	0.8365
3984.94	0.8343
3993.96	0.8324
4002.99	0.8297
