Infrared Spectrum: 3-(BENZOYLAMINO) THIOPHANE
Formula: C11 H13 N O S
CAS: 92367-69-6
State: SOLID (NUJOL MULL)
Melting point: 131 C
Class: COBLENTZ
Instrument: Not specified, most likely a prism, grating, or hybrid spectrometer.
Sampling: TRANSMISSION
Resolution: 4
Origin: ARTHUR D. LITTLE, INC.
1/CM	TRANSMITTANCE
646.859	0.607
655.008	0.616
663.158	0.619
671.307	0.649
679.457	0.552
687.606	0.523
695.756	0.694
703.905	0.658
712.054	0.474
720.204	0.634
728.353	0.794
736.503	0.811
744.652	0.813
752.802	0.853
760.951	0.873
769.1	0.876
777.25	0.875
785.399	0.869
793.549	0.804
801.698	0.884
809.848	0.881
817.997	0.876
826.146	0.884
834.296	0.879
842.445	0.864
850.595	0.87
858.744	0.88
866.894	0.876
875.043	0.85
883.192	0.82
891.342	0.839
899.491	0.763
907.641	0.842
915.79	0.824
923.939	0.855
932.089	0.861
940.238	0.857
948.388	0.853
956.537	0.849
964.687	0.838
972.836	0.832
980.985	0.873
989.135	0.87
997.284	0.842
1005.43	0.841
1013.58	0.83
1021.73	0.819
1029.88	0.842
1038.03	0.841
1046.18	0.831
1054.33	0.824
1062.48	0.804
1070.63	0.725
1078.78	0.726
1086.93	0.83
1095.08	0.831
1103.23	0.834
1111.38	0.834
1119.53	0.832
1127.68	0.827
1135.82	0.811
1143.97	0.783
1152.12	0.748
1160.27	0.767
1168.42	0.769
1176.57	0.8
1184.72	0.797
1192.87	0.788
1201.02	0.764
1209.17	0.756
1217.32	0.682
1225.47	0.72
1233.62	0.748
1241.77	0.737
1249.92	0.721
1258.07	0.688
1266.22	0.672
1274.36	0.664
1282.51	0.622
1290.66	0.6
1298.81	0.569
1306.96	0.533
1315.11	0.546
1323.26	0.529
1331.41	0.58
1339.56	0.671
1347.71	0.671
1355.86	0.634
1364.01	0.559
1372.16	0.532
1380.31	0.561
1388.46	0.717
1396.61	0.75
1404.76	0.75
1412.91	0.744
1421.05	0.699
1429.2	0.572
1437.35	0.422
1445.5	0.343
1453.65	0.3
1461.8	0.297
1469.95	0.43
1478.1	0.512
1486.25	0.495
1494.4	0.567
1502.55	0.561
1510.7	0.429
1518.85	0.285
1527	0.218
1535.15	0.296
1543.3	0.528
1551.45	0.595
1559.59	0.652
1567.74	0.62
1575.89	0.509
1584.04	0.652
1592.19	0.69
1600.34	0.577
1608.49	0.552
1616.64	0.44
1624.79	0.233
1632.94	0.206
1641.09	0.459
1649.24	0.733
1657.39	0.793
1665.54	0.834
1673.69	0.842
1681.84	0.845
1689.99	0.843
1698.14	0.843
1706.28	0.843
1714.43	0.843
1722.58	0.842
1730.73	0.842
1738.88	0.842
1747.03	0.842
1755.18	0.842
1763.33	0.842
1771.48	0.842
1779.63	0.841
1787.78	0.839
1795.93	0.839
1804.08	0.839
1812.23	0.839
1820.38	0.839
1828.53	0.839
1836.68	0.838
1844.82	0.836
1852.97	0.834
1861.12	0.832
1869.27	0.828
1877.42	0.828
1885.57	0.824
1893.72	0.823
1901.87	0.823
1910.02	0.822
1918.17	0.822
1926.32	0.822
1934.47	0.82
1942.62	0.817
1950.77	0.817
1958.92	0.817
1967.07	0.817
1975.22	0.816
1983.36	0.816
1991.51	0.816
1999.66	0.816
2007.81	0.816
2015.96	0.815
2024.11	0.813
2032.26	0.813
2040.41	0.813
2048.56	0.811
2056.71	0.809
2064.86	0.808
2073.01	0.805
2081.16	0.804
2089.31	0.802
2097.46	0.8
2105.61	0.798
2113.76	0.798
2121.91	0.797
2130.05	0.796
2138.2	0.794
2146.35	0.793
2154.5	0.792
2162.65	0.79
2170.8	0.79
2178.95	0.789
2187.1	0.786
2195.25	0.785
2203.4	0.782
2211.55	0.781
2219.7	0.779
2227.85	0.778
2236	0.775
2244.15	0.773
2252.3	0.771
2260.45	0.77
2268.59	0.77
2276.74	0.769
2284.89	0.767
2293.04	0.767
2301.19	0.767
2309.34	0.767
2317.49	0.767
2325.64	0.766
2333.79	0.766
2341.94	0.766
2350.09	0.766
2358.24	0.764
2366.39	0.763
2374.54	0.763
2382.69	0.76
2390.84	0.758
2398.99	0.756
2407.14	0.755
2415.28	0.752
2423.43	0.75
2431.58	0.748
2439.73	0.748
2447.88	0.747
2456.03	0.747
2464.18	0.745
2472.33	0.744
2480.48	0.744
2488.63	0.743
2496.78	0.74
2504.93	0.736
2513.08	0.73
2521.23	0.728
2529.38	0.724
2537.53	0.721
2545.68	0.718
2553.82	0.718
2561.97	0.717
2570.12	0.71
2578.27	0.705
2586.42	0.702
2594.57	0.698
2602.72	0.694
2610.87	0.692
2619.02	0.691
2627.17	0.688
2635.32	0.687
2643.47	0.683
2651.62	0.679
2659.77	0.676
2667.92	0.673
2676.07	0.673
2684.22	0.672
2692.37	0.672
2700.51	0.672
2708.66	0.671
2716.81	0.669
2724.96	0.669
2733.11	0.669
2741.26	0.669
2749.41	0.671
2757.56	0.669
2765.71	0.668
2773.86	0.653
2782.01	0.646
2790.16	0.622
2798.31	0.604
2806.46	0.581
2814.61	0.546
2822.76	0.494
2830.91	0.387
2839.05	0.207
2847.2	0.085
2855.35	0.089
2863.5	0.103
2871.65	0.111
2879.8	0.11
2887.95	0.078
2896.1	0.055
2904.25	0.047
2912.4	0.044
2920.55	0.046
2928.7	0.05
2936.85	0.061
2945	0.062
2953.15	0.067
2961.3	0.099
2969.45	0.16
2977.59	0.271
2985.74	0.376
2993.89	0.461
3002.04	0.508
3010.19	0.54
3018.34	0.548
3026.49	0.557
3034.64	0.566
3042.79	0.569
3050.94	0.572
3059.09	0.586
3067.24	0.597
3075.39	0.599
3083.54	0.6
3091.69	0.614
3099.84	0.614
3107.99	0.612
3116.14	0.61
3124.28	0.608
3132.43	0.605
3140.58	0.603
3148.73	0.601
3156.88	0.597
3165.03	0.596
3173.18	0.595
3181.33	0.591
3189.48	0.584
3197.63	0.578
3205.78	0.573
3213.93	0.57
3222.08	0.563
3230.23	0.555
3238.38	0.544
3246.53	0.523
3254.68	0.495
3262.82	0.476
3270.97	0.452
3279.12	0.406
3287.27	0.358
3295.42	0.305
3303.57	0.256
3311.72	0.216
3319.87	0.229
3328.02	0.332
3336.17	0.474
3344.32	0.558
3352.47	0.605
3360.62	0.638
3368.77	0.649
3376.92	0.654
3385.07	0.656
3393.22	0.656
3401.37	0.654
3409.51	0.653
3417.66	0.652
3425.81	0.65
3433.96	0.649
3442.11	0.649
3450.26	0.649
3458.41	0.648
3466.56	0.648
3474.71	0.646
3482.86	0.645
3491.01	0.645
