Infrared Spectrum: P-NITRO CARBANILIC ACID, n-HEPTYL ESTER
Formula: C14 H20 N2 O4
CAS: 92374-99-7
State: SOLID (1.5 mg / 100 mg KBr)
Melting point: 110 C
Class: COBLENTZ
Instrument: Not specified, most likely a grating spectrometer.
Sampling: TRANSMISSION
Resolution: 4
Origin: CITRUS EXPERIMENT STATION, UNIVERSITY OF FLORIDA (G. EDWARDS)
MICROMETERS	TRANSMITTANCE
2.04	0.75
2.07314	0.75
2.10629	0.748
2.13943	0.748
2.17257	0.748
2.20571	0.747
2.23886	0.747
2.272	0.747
2.30514	0.747
2.33829	0.748
2.37143	0.75
2.40457	0.75
2.43771	0.75
2.47086	0.75
2.504	0.75
2.53714	0.75
2.57029	0.75
2.60343	0.75
2.63657	0.748
2.66971	0.744
2.70286	0.74
2.736	0.739
2.76914	0.736
2.80229	0.732
2.83543	0.73
2.86857	0.719
2.90171	0.712
2.93486	0.394
2.968	0.699
3.00114	0.732
3.03429	0.739
3.06743	0.74
3.10057	0.742
3.13371	0.74
3.16686	0.73
3.2	0.73
3.23314	0.73
3.26629	0.73
3.29943	0.726
3.33257	0.696
3.36571	0.541
3.39886	0.569
3.432	0.64
3.46514	0.617
3.49829	0.69
3.53143	0.748
3.56457	0.751
3.59771	0.756
3.63086	0.759
3.664	0.76
3.69714	0.76
3.73029	0.764
3.76343	0.764
3.79657	0.764
3.82971	0.765
3.86286	0.765
3.896	0.765
3.92914	0.767
3.96229	0.767
3.99543	0.767
4.02857	0.765
4.06171	0.764
4.09486	0.772
4.128	0.776
4.16114	0.776
4.19429	0.779
4.22743	0.779
4.26057	0.779
4.29371	0.779
4.32686	0.779
4.36	0.779
4.39314	0.779
4.42629	0.78
4.45943	0.78
4.49257	0.78
4.52571	0.781
4.55886	0.781
4.592	0.781
4.62514	0.781
4.65829	0.781
4.69143	0.781
4.72457	0.781
4.75771	0.781
4.79086	0.781
4.824	0.781
4.85714	0.781
4.89029	0.781
4.92343	0.781
4.95657	0.783
4.98971	0.783
5.02286	0.783
5.056	0.783
5.08914	0.783
5.12229	0.781
5.15543	0.78
5.18857	0.783
5.22171	0.783
5.25486	0.781
5.288	0.781
5.32114	0.78
5.35429	0.779
5.38743	0.777
5.42057	0.772
5.45371	0.767
5.48686	0.761
5.52	0.759
5.55314	0.759
5.58629	0.757
5.61943	0.75
5.65257	0.735
5.68571	0.586
5.71886	0.417
5.752	0.581
5.78514	0.666
5.81829	0.748
5.85143	0.765
5.88457	0.767
5.91771	0.767
5.95086	0.767
5.984	0.764
6.01714	0.752
6.05029	0.746
6.08343	0.736
6.11657	0.731
6.14971	0.652
6.18286	0.47
6.216	0.523
6.24914	0.484
6.28229	0.682
6.31543	0.69
6.34857	0.654
6.38171	0.472
6.41486	0.281
6.448	0.44
6.48114	0.561
6.51429	0.513
6.54743	0.385
6.58057	0.408
6.61371	0.579
6.64686	0.546
6.68	0.635
6.71314	0.676
6.74629	0.651
6.77943	0.695
6.81257	0.722
6.84571	0.74
6.87886	0.755
6.912	0.756
6.94514	0.76
6.97829	0.753
7.01143	0.711
7.04457	0.656
7.07771	0.728
7.11086	0.74
7.144	0.73
7.17714	0.708
7.21029	0.703
7.24343	0.714
7.27657	0.72
7.30971	0.71
7.34286	0.671
7.376	0.537
7.40914	0.371
7.44229	0.26
7.47543	0.147
7.50857	0.243
7.54171	0.34
7.57486	0.481
7.608	0.433
7.64114	0.569
7.67429	0.654
7.70743	0.692
7.74057	0.698
7.77371	0.692
7.80686	0.67
7.84	0.664
7.87314	0.662
7.90629	0.674
7.93943	0.7
7.97257	0.674
8.00571	0.646
8.03886	0.609
8.072	0.531
8.10514	0.372
8.13829	0.247
8.17143	0.119
8.20457	0.152
8.23771	0.285
8.27086	0.4
8.304	0.498
8.33714	0.551
8.37029	0.585
8.40343	0.599
8.43657	0.598
8.46971	0.613
8.50286	0.692
8.536	0.727
8.56914	0.738
8.60229	0.752
8.63543	0.761
8.66857	0.767
8.70171	0.768
8.73486	0.765
8.768	0.76
8.80114	0.747
8.83429	0.706
8.86743	0.718
8.90057	0.731
8.93371	0.659
8.96686	0.538
9	0.55
9.03314	0.65
9.06629	0.695
9.09943	0.723
9.13257	0.73
9.16571	0.719
9.19886	0.646
9.232	0.613
9.26514	0.651
9.29829	0.683
9.33143	0.702
9.36457	0.702
9.39771	0.686
9.43086	0.626
9.464	0.632
9.49714	0.683
9.53029	0.7
9.56343	0.67
9.59657	0.652
9.62971	0.699
9.66286	0.735
9.696	0.76
9.72914	0.779
9.76229	0.787
9.79543	0.791
9.82857	0.791
9.86171	0.795
9.89486	0.795
9.928	0.797
9.96114	0.799
9.99429	0.8
10.0274	0.8
10.0606	0.801
10.0937	0.803
10.1269	0.803
10.16	0.803
10.1931	0.803
10.2263	0.799
10.2594	0.792
10.2926	0.787
10.3257	0.789
10.3589	0.796
10.392	0.801
10.4251	0.808
10.4583	0.819
10.4914	0.82
10.5246	0.824
10.5577	0.824
10.5909	0.827
10.624	0.828
10.6571	0.828
10.6903	0.828
10.7234	0.828
10.7566	0.828
10.7897	0.828
10.8229	0.828
10.856	0.828
10.8891	0.828
10.9223	0.828
10.9554	0.828
10.9886	0.828
11.0217	0.828
11.0549	0.828
11.088	0.828
11.1211	0.828
11.1543	0.828
11.1874	0.827
11.2206	0.825
11.2537	0.825
11.2869	0.825
11.32	0.824
11.3531	0.82
11.3863	0.804
11.4194	0.767
11.4526	0.692
11.4857	0.714
11.5189	0.784
11.552	0.789
11.5851	0.78
11.6183	0.746
11.6514	0.602
11.6846	0.456
11.7177	0.492
11.7509	0.648
11.784	0.743
11.8171	0.784
11.8503	0.787
11.8834	0.781
11.9166	0.773
11.9497	0.773
11.9829	0.783
12.016	0.795
12.0491	0.803
12.0823	0.804
12.1154	0.811
12.1486	0.825
12.1817	0.831
12.2149	0.832
12.248	0.833
12.2811	0.835
12.3143	0.835
12.3474	0.835
12.3806	0.835
12.4137	0.836
12.4469	0.836
12.48	0.836
12.5131	0.836
12.5463	0.836
12.5794	0.836
12.6126	0.835
12.6457	0.835
12.6789	0.832
12.712	0.829
12.7451	0.829
12.7783	0.828
12.8114	0.816
12.8446	0.8
12.8777	0.793
12.9109	0.791
12.944	0.783
12.9771	0.753
13.0103	0.699
13.0434	0.63
13.0766	0.639
13.1097	0.691
13.1429	0.748
13.176	0.785
13.2091	0.793
13.2423	0.789
13.2754	0.771
13.3086	0.708
13.3417	0.565
13.3749	0.626
13.408	0.736
13.4411	0.791
13.4743	0.807
13.5074	0.823
13.5406	0.828
13.5737	0.829
13.6069	0.829
13.64	0.829
13.6731	0.828
13.7063	0.825
13.7394	0.811
13.7726	0.803
13.8057	0.801
13.8389	0.807
13.872	0.816
13.9051	0.839
13.9383	0.845
13.9714	0.849
14.0046	0.851
14.0377	0.851
14.0709	0.851
14.104	0.851
14.1371	0.851
14.1703	0.851
14.2034	0.849
14.2366	0.841
14.2697	0.839
14.3029	0.831
14.336	0.811
14.3691	0.787
14.4023	0.75
14.4354	0.739
14.4686	0.739
14.5017	0.76
14.5349	0.784
14.568	0.82
14.6011	0.833
14.6343	0.837
14.6674	0.839
14.7006	0.839
14.7337	0.837
14.7669	0.831
14.8	0.824
14.8331	0.808
14.8663	0.791
14.8994	0.783
14.9326	0.784
14.9657	0.811
14.9989	0.836
15.032	0.837
