Infrared Spectrum: 2,2'-BIS [(4-n-PROPYLSULFONYLMETHYL)THIAZOLYL] DISULFIDE
Formula: C14 H20 N2 O4 S6
CAS: 92375-23-0
State: SOLID (KBr PELLET)
Melting point: 159-160 C
Class: COBLENTZ
Instrument: Not specified, most likely a prism, grating, or hybrid spectrometer.
Sampling: TRANSMISSION
Resolution: 4
Origin: EASTMAN KODAK COMPANY, RESEARCH LABORATORIES, ROCHESTER, N.Y.
MICROMETERS	TRANSMITTANCE
2.007	0.635
2.04698	0.638
2.08696	0.638
2.12694	0.641
2.16692	0.643
2.2069	0.645
2.24688	0.646
2.28686	0.648
2.32684	0.65
2.36682	0.653
2.4068	0.658
2.44678	0.66
2.48676	0.663
2.52674	0.671
2.56672	0.678
2.6067	0.679
2.64668	0.688
2.68666	0.691
2.72664	0.691
2.76662	0.676
2.8066	0.627
2.84658	0.562
2.88656	0.523
2.92654	0.503
2.96652	0.542
3.0065	0.603
3.04648	0.641
3.08646	0.65
3.12644	0.669
3.16642	0.683
3.2064	0.615
3.24638	0.665
3.28636	0.679
3.32634	0.641
3.36632	0.452
3.4063	0.432
3.44628	0.61
3.48626	0.592
3.52624	0.688
3.56622	0.699
3.6062	0.711
3.64618	0.729
3.68616	0.734
3.72614	0.74
3.76612	0.745
3.8061	0.75
3.84608	0.757
3.88606	0.767
3.92605	0.772
3.96603	0.773
4.00601	0.77
4.04599	0.767
4.08597	0.775
4.12595	0.773
4.16593	0.785
4.20591	0.785
4.24589	0.782
4.28587	0.787
4.32585	0.797
4.36583	0.8
4.40581	0.801
4.44579	0.806
4.48577	0.816
4.52575	0.82
4.56573	0.821
4.60571	0.823
4.64569	0.821
4.68567	0.821
4.72565	0.823
4.76563	0.823
4.80561	0.826
4.84559	0.83
4.88557	0.831
4.92555	0.833
4.96553	0.838
5.00551	0.841
5.04549	0.844
5.08547	0.849
5.12545	0.854
5.16543	0.854
5.20541	0.859
5.24539	0.863
5.28537	0.866
5.32535	0.869
5.36533	0.874
5.40531	0.876
5.44529	0.876
5.48527	0.879
5.52525	0.872
5.56523	0.874
5.60521	0.881
5.64519	0.879
5.68517	0.884
5.72515	0.874
5.76513	0.864
5.80511	0.858
5.84509	0.867
5.88507	0.866
5.92505	0.867
5.96503	0.866
6.00501	0.861
6.04499	0.854
6.08497	0.839
6.12495	0.82
6.16493	0.815
6.20491	0.83
6.24489	0.841
6.28487	0.856
6.32485	0.867
6.36483	0.871
6.40481	0.874
6.44479	0.876
6.48477	0.882
6.52475	0.882
6.56473	0.846
6.60471	0.727
6.64469	0.755
6.68467	0.792
6.72465	0.821
6.76463	0.831
6.80461	0.798
6.84459	0.681
6.88457	0.689
6.92455	0.747
6.96453	0.805
7.00451	0.815
7.04449	0.714
7.08447	0.622
7.12445	0.422
7.16443	0.424
7.20441	0.686
7.24439	0.788
7.28437	0.793
7.32435	0.83
7.36433	0.841
7.40431	0.841
7.44429	0.82
7.48427	0.816
7.52425	0.775
7.56423	0.623
7.60421	0.346
7.64419	0.267
7.68417	0.176
7.72415	0.338
7.76414	0.405
7.80412	0.201
7.8441	0.13
7.88408	0.367
7.92406	0.509
7.96404	0.646
8.00402	0.66
8.044	0.651
8.08398	0.76
8.12396	0.8
8.16394	0.731
8.20392	0.686
8.2439	0.803
8.28388	0.839
8.32386	0.849
8.36384	0.859
8.40382	0.864
8.4438	0.867
8.48378	0.871
8.52376	0.871
8.56374	0.859
8.60372	0.848
8.6437	0.831
8.68368	0.78
8.72366	0.673
8.76364	0.437
8.80362	0.113
8.8436	0.113
8.88358	0.186
8.92356	0.414
8.96354	0.45
9.00352	0.485
9.0435	0.603
9.08348	0.693
9.12346	0.686
9.16344	0.547
9.20342	0.585
9.2434	0.711
9.28338	0.777
9.32336	0.81
9.36334	0.816
9.40332	0.808
9.4433	0.793
9.48328	0.739
9.52326	0.589
9.56324	0.346
9.60322	0.184
9.6432	0.278
9.68318	0.49
9.72316	0.641
9.76314	0.716
9.80312	0.754
9.8431	0.787
9.88308	0.82
9.92306	0.839
9.96304	0.851
10.003	0.858
10.043	0.864
10.083	0.874
10.123	0.877
10.1629	0.879
10.2029	0.886
10.2429	0.891
10.2829	0.889
10.3229	0.892
10.3628	0.894
10.4028	0.892
10.4428	0.894
10.4828	0.899
10.5228	0.9
10.5627	0.892
10.6027	0.833
10.6427	0.755
10.6827	0.863
10.7227	0.914
10.7626	0.932
10.8026	0.942
10.8426	0.947
10.8826	0.95
10.9226	0.952
10.9625	0.948
11.0025	0.925
11.0425	0.877
11.0825	0.892
11.1225	0.907
11.1624	0.869
11.2024	0.836
11.2424	0.892
11.2824	0.93
11.3224	0.953
11.3623	0.963
11.4023	0.97
11.4423	0.968
11.4823	0.971
11.5223	0.962
11.5622	0.935
11.6022	0.882
11.6422	0.846
11.6822	0.874
11.7222	0.891
11.7621	0.863
11.8021	0.815
11.8421	0.836
11.8821	0.894
11.9221	0.925
11.962	0.935
12.002	0.952
12.042	0.95
12.082	0.952
12.122	0.953
12.1619	0.955
12.2019	0.957
12.2419	0.958
12.2819	0.95
12.3219	0.948
12.3618	0.942
12.4018	0.943
12.4418	0.94
12.4818	0.935
12.5218	0.93
12.5617	0.92
12.6017	0.905
12.6417	0.891
12.6817	0.858
12.7217	0.808
12.7616	0.782
12.8016	0.793
12.8416	0.825
12.8816	0.841
12.9216	0.841
12.9615	0.834
13.0015	0.82
13.0415	0.788
13.0815	0.739
13.1215	0.658
13.1614	0.572
13.2014	0.503
13.2414	0.445
13.2814	0.46
13.3214	0.536
13.3613	0.597
13.4013	0.603
13.4413	0.599
13.4813	0.658
13.5213	0.739
13.5613	0.806
13.6012	0.838
13.6412	0.851
13.6812	0.853
13.7212	0.844
13.7612	0.826
13.8011	0.818
13.8411	0.828
13.8811	0.851
13.9211	0.871
13.9611	0.891
14.001	0.897
14.041	0.902
14.081	0.905
14.121	0.905
14.161	0.899
14.2009	0.876
14.2409	0.838
14.2809	0.792
14.3209	0.701
14.3609	0.633
14.4008	0.668
14.4408	0.747
14.4808	0.826
14.5208	0.858
14.5608	0.872
14.6007	0.884
14.6407	0.886
14.6807	0.872
14.7207	0.853
14.7607	0.856
14.8006	0.853
14.8406	0.841
14.8806	0.815
14.9206	0.754
14.9606	0.676
15.0005	0.59
15.0405	0.552
15.0805	0.615
15.1205	0.698
15.1605	0.755
15.2004	0.787
15.2404	0.81
15.2804	0.818
15.3204	0.825
15.3604	0.821
15.4003	0.82
15.4403	0.813
15.4803	0.806
15.5203	0.805
15.5603	0.801
15.6002	0.798
15.6402	0.795
15.6802	0.793
15.7202	0.787
15.7602	0.785
15.8001	0.785
15.8401	0.785
15.8801	0.782
15.9201	0.775
15.9601	0.775
16	0.773
