Infrared Spectrum: O-NITRO CARBANILIC ACID, n-HEPTYL ESTER
Formula: C14 H20 N2 O4
CAS: 92374-98-6
Class: COBLENTZ
Instrument: Not specified, most likely a grating spectrometer.
Sampling: TRANSMISSION
Path length: CAPILLARY
Resolution: 4
Origin: CITRUS EXPERIMENT STATION, UNIVERSITY OF FLORIDA (G. EDWARDS)
MICROMETERS	TRANSMITTANCE
2.033	0.915
2.06616	0.915
2.09932	0.915
2.13248	0.913
2.16564	0.912
2.1988	0.911
2.23195	0.903
2.26511	0.909
2.29827	0.907
2.33143	0.903
2.36459	0.903
2.39775	0.907
2.43091	0.904
2.46407	0.908
2.49723	0.912
2.53039	0.909
2.56354	0.912
2.5967	0.916
2.62986	0.909
2.66302	0.905
2.69618	0.897
2.72934	0.899
2.7625	0.904
2.79566	0.907
2.82882	0.9
2.86198	0.884
2.89513	0.855
2.92829	0.78
2.96145	0.416
2.99461	0.483
3.02777	0.822
3.06093	0.869
3.09409	0.88
3.12725	0.876
3.16041	0.861
3.19357	0.818
3.22672	0.814
3.25988	0.835
3.29304	0.832
3.3262	0.75
3.35936	0.482
3.39252	0.179
3.42568	0.359
3.45884	0.498
3.492	0.355
3.52516	0.783
3.55831	0.836
3.59147	0.852
3.62463	0.859
3.65779	0.865
3.69095	0.873
3.72411	0.873
3.75727	0.873
3.79043	0.879
3.82359	0.879
3.85675	0.879
3.8899	0.891
3.92306	0.893
3.95622	0.901
3.98938	0.903
4.02254	0.888
4.0557	0.884
4.08886	0.883
4.12202	0.883
4.15518	0.881
4.18834	0.883
4.22149	0.893
4.25465	0.889
4.28781	0.888
4.32097	0.889
4.35413	0.892
4.38729	0.9
4.42045	0.901
4.45361	0.887
4.48677	0.891
4.51993	0.891
4.55308	0.891
4.58624	0.892
4.6194	0.892
4.65256	0.893
4.68572	0.893
4.71888	0.901
4.75204	0.908
4.7852	0.909
4.81836	0.905
4.85152	0.904
4.88467	0.905
4.91783	0.905
4.95099	0.899
4.98415	0.895
5.01731	0.883
5.05047	0.876
5.08363	0.88
5.11679	0.88
5.14995	0.872
5.18311	0.889
5.21626	0.891
5.24942	0.889
5.28258	0.885
5.31574	0.88
5.3489	0.872
5.38206	0.864
5.41522	0.848
5.44838	0.824
5.48154	0.806
5.5147	0.819
5.54786	0.808
5.58101	0.78
5.61417	0.739
5.64733	0.613
5.68049	0.289
5.71365	0.042
5.74681	0.102
5.77997	0.374
5.81313	0.638
5.84629	0.711
5.87945	0.755
5.9126	0.779
5.94576	0.795
5.97892	0.788
6.01208	0.771
6.04524	0.745
6.0784	0.73
6.11156	0.66
6.14472	0.536
6.17788	0.243
6.21104	0.092
6.24419	0.395
6.27735	0.281
6.31051	0.058
6.34367	0.47
6.37683	0.629
6.40999	0.504
6.44315	0.448
6.47631	0.389
6.50947	0.328
6.54263	0.197
6.57578	0.006
6.60894	0.014
6.6421	0.019
6.67526	0.115
6.70842	0.349
6.74158	0.414
6.77474	0.31
6.8079	0.229
6.84106	0.126
6.87422	0.096
6.90737	0.188
6.94053	0.087
6.97369	0.081
7.00685	0.155
7.04001	0.325
7.07317	0.405
7.10633	0.474
7.13949	0.509
7.17265	0.501
7.20581	0.422
7.23896	0.427
7.27212	0.49
7.30528	0.511
7.33844	0.439
7.3716	0.298
7.40476	0.11
7.43792	0.001
7.47108	0.059
7.50424	0.216
7.5374	0.321
7.57055	0.207
7.60371	0.235
7.63687	0.285
7.67003	0.309
7.70319	0.284
7.73635	0.249
7.76951	0.181
7.80267	0.107
7.83583	0.098
7.86899	0.139
7.90214	0.213
7.9353	0.25
7.96846	0.173
8.00162	0.081
8.03478	0.006
8.06794	0.011
8.1011	0.062
8.13426	0.22
8.16742	0.305
8.20058	0.268
8.23373	0.193
8.26689	0.092
8.30005	0.019
8.33321	0.002
8.36637	0.019
8.39953	0.123
8.43269	0.337
8.46585	0.459
8.49901	0.555
8.53217	0.539
8.56532	0.439
8.59848	0.296
8.63164	0.345
8.6648	0.444
8.69796	0.365
8.73112	0.379
8.76428	0.585
8.79744	0.665
8.8306	0.695
8.86376	0.707
8.89692	0.703
8.93007	0.699
8.96323	0.697
8.99639	0.699
9.02955	0.703
9.06271	0.698
9.09587	0.65
9.12903	0.552
9.16219	0.41
9.19535	0.256
9.22851	0.211
9.26166	0.341
9.29482	0.413
9.32798	0.393
9.36114	0.353
9.3943	0.326
9.42746	0.334
9.46062	0.318
9.49378	0.325
9.52694	0.351
9.5601	0.334
9.59325	0.262
9.62641	0.281
9.65957	0.365
9.69273	0.467
9.72589	0.568
9.75905	0.629
9.79221	0.657
9.82537	0.694
9.85853	0.725
9.89169	0.737
9.92484	0.754
9.958	0.762
9.99116	0.78
10.0243	0.79
10.0575	0.796
10.0906	0.796
10.1238	0.795
10.157	0.792
10.1901	0.804
10.2233	0.802
10.2564	0.792
10.2896	0.778
10.3228	0.756
10.3559	0.739
10.3891	0.718
10.4222	0.707
10.4554	0.701
10.4885	0.709
10.5217	0.741
10.5549	0.771
10.588	0.783
10.6212	0.787
10.6543	0.792
10.6875	0.803
10.7207	0.824
10.7538	0.835
10.787	0.844
10.8201	0.845
10.8533	0.856
10.8865	0.861
10.9196	0.867
10.9528	0.859
10.9859	0.861
11.0191	0.856
11.0523	0.852
11.0854	0.857
11.1186	0.86
11.1517	0.859
11.1849	0.868
11.218	0.867
11.2512	0.861
11.2844	0.86
11.3175	0.848
11.3507	0.841
11.3838	0.83
11.417	0.804
11.4502	0.771
11.4833	0.73
11.5165	0.616
11.5496	0.48
11.5828	0.399
11.616	0.488
11.6491	0.636
11.6823	0.709
11.7154	0.743
11.7486	0.749
11.7817	0.746
11.8149	0.734
11.8481	0.723
11.8812	0.706
11.9144	0.691
11.9475	0.681
11.9807	0.67
12.0139	0.662
12.047	0.658
12.0802	0.665
12.1133	0.682
12.1465	0.721
12.1797	0.756
12.2128	0.782
12.246	0.8
12.2791	0.812
12.3123	0.816
12.3455	0.814
12.3786	0.812
12.4118	0.81
12.4449	0.804
12.4781	0.799
12.5112	0.783
12.5444	0.754
12.5776	0.722
12.6107	0.693
12.6439	0.66
12.677	0.601
12.7102	0.505
12.7434	0.434
12.7765	0.361
12.8097	0.367
12.8428	0.447
12.876	0.571
12.9092	0.62
12.9423	0.598
12.9755	0.549
13.0086	0.49
13.0418	0.428
13.075	0.422
13.1081	0.466
13.1413	0.533
13.1744	0.589
13.2076	0.618
13.2407	0.644
13.2739	0.621
13.3071	0.584
13.3402	0.5
13.3734	0.405
13.4065	0.257
13.4397	0.191
13.4729	0.138
13.506	0.135
13.5392	0.179
13.5723	0.269
13.6055	0.361
13.6387	0.435
13.6718	0.488
13.705	0.524
13.7381	0.54
13.7713	0.543
13.8044	0.553
13.8376	0.571
13.8708	0.59
13.9039	0.618
13.9371	0.641
13.9702	0.652
14.0034	0.661
14.0366	0.664
14.0697	0.666
14.1029	0.667
14.136	0.665
14.1692	0.657
14.2024	0.652
14.2355	0.645
14.2687	0.641
14.3018	0.621
14.335	0.605
14.3682	0.588
14.4013	0.557
14.4345	0.536
14.4676	0.5
14.5008	0.47
14.5339	0.448
14.5671	0.448
14.6003	0.462
14.6334	0.456
14.6666	0.451
14.6997	0.438
14.7329	0.428
14.7661	0.414
14.7992	0.409
14.8324	0.414
14.8655	0.418
14.8987	0.432
14.9319	0.443
14.965	0.44
14.9982	0.415
