Infrared Spectrum: 1,2-CYCLOBUTANEDICARBOXIMIDE, N-BUTYL-4-DIMETHYLAMINO-3,3-DIMETHYL-
Formula: C14 H24 N2 O2
CAS: 92377-25-8
Boiling point: 110-120 C AT LESS THAN 0.5 mmHg
Class: COBLENTZ
Instrument: Not specified, most likely a prism, grating, or hybrid spectrometer.
Sampling: TRANSMISSION
Path length: SMEAR
Resolution: 4
Origin: TENNESSEE EASTMAN COMPANY, RESEARCH LABORATORIES
MICROMETERS	TRANSMITTANCE
2.027	0.977
2.06796	0.976
2.10891	0.974
2.14987	0.974
2.19082	0.972
2.23178	0.955
2.27274	0.923
2.31369	0.923
2.35465	0.926
2.3956	0.928
2.43656	0.931
2.47752	0.935
2.51847	0.941
2.55943	0.945
2.60038	0.948
2.64134	0.952
2.68229	0.953
2.72325	0.953
2.76421	0.938
2.80516	0.933
2.84612	0.93
2.88707	0.866
2.92803	0.906
2.96899	0.919
3.00994	0.928
3.0509	0.931
3.09185	0.931
3.13281	0.921
3.17377	0.914
3.21472	0.912
3.25568	0.889
3.29663	0.849
3.33759	0.406
3.37855	0.203
3.4195	0.419
3.46046	0.358
3.50141	0.588
3.54237	0.592
3.58333	0.341
3.62428	0.643
3.66524	0.752
3.70619	0.841
3.74715	0.832
3.78811	0.861
3.82906	0.916
3.87002	0.93
3.91097	0.93
3.95193	0.921
3.99288	0.928
4.03384	0.931
4.0748	0.936
4.11575	0.945
4.15671	0.945
4.19766	0.94
4.23862	0.947
4.27958	0.931
4.32053	0.928
4.36149	0.936
4.40244	0.952
4.4434	0.955
4.48436	0.959
4.52531	0.959
4.56627	0.959
4.60722	0.959
4.64818	0.959
4.68914	0.955
4.73009	0.941
4.77105	0.947
4.812	0.957
4.85296	0.959
4.89392	0.962
4.93487	0.962
4.97583	0.964
5.01678	0.967
5.05774	0.967
5.0987	0.97
5.13965	0.967
5.18061	0.953
5.22156	0.955
5.26252	0.95
5.30347	0.941
5.34443	0.938
5.38539	0.938
5.42634	0.923
5.4673	0.904
5.50825	0.883
5.54921	0.843
5.59017	0.776
5.63112	0.409
5.67208	0.467
5.71303	0.547
5.75399	0.394
5.79495	0.203
5.8359	0.018
5.87686	0.015
5.91781	0.1
5.95877	0.351
5.99973	0.544
6.04068	0.665
6.08164	0.723
6.12259	0.791
6.16355	0.822
6.20451	0.848
6.24546	0.872
6.28642	0.873
6.32737	0.89
6.36833	0.892
6.40929	0.865
6.45024	0.873
6.4912	0.858
6.53215	0.861
6.57311	0.817
6.61406	0.825
6.65502	0.824
6.69598	0.766
6.73693	0.639
6.77789	0.341
6.81884	0.271
6.8598	0.353
6.90076	0.32
6.94171	0.331
6.98267	0.518
7.02362	0.58
7.06458	0.424
7.10554	0.255
7.14649	0.182
7.18745	0.238
7.2284	0.324
7.26936	0.23
7.31032	0.226
7.35127	0.249
7.39223	0.225
7.43318	0.213
7.47414	0.296
7.5151	0.395
7.55605	0.537
7.59701	0.605
7.63796	0.67
7.67892	0.684
7.71988	0.569
7.76083	0.406
7.80179	0.401
7.84274	0.44
7.8837	0.496
7.92465	0.511
7.96561	0.59
8.00657	0.665
8.04752	0.68
8.08848	0.715
8.12943	0.656
8.17039	0.544
8.21135	0.624
8.2523	0.569
8.29326	0.368
8.33421	0.261
8.37517	0.29
8.41613	0.298
8.45708	0.368
8.49804	0.44
8.53899	0.546
8.57995	0.58
8.62091	0.551
8.66186	0.535
8.70282	0.452
8.74377	0.375
8.78473	0.307
8.82569	0.348
8.86664	0.307
8.9076	0.269
8.94855	0.351
8.98951	0.477
9.03046	0.581
9.07142	0.598
9.11238	0.617
9.15333	0.634
9.19429	0.639
9.23524	0.66
9.2762	0.616
9.31716	0.54
9.35811	0.546
9.39907	0.626
9.44002	0.677
9.48098	0.697
9.52194	0.645
9.56289	0.556
9.60385	0.585
9.6448	0.631
9.68576	0.629
9.72672	0.6
9.76767	0.648
9.80863	0.66
9.84958	0.67
9.89054	0.733
9.9315	0.773
9.97245	0.793
10.0134	0.81
10.0544	0.813
10.0953	0.793
10.1363	0.773
10.1772	0.773
10.2182	0.788
10.2591	0.779
10.3001	0.766
10.3411	0.771
10.382	0.8
10.423	0.817
10.4639	0.817
10.5049	0.8
10.5458	0.784
10.5868	0.774
10.6277	0.757
10.6687	0.738
10.7097	0.708
10.7506	0.668
10.7916	0.593
10.8325	0.547
10.8735	0.549
10.9144	0.646
10.9554	0.704
10.9963	0.699
11.0373	0.53
11.0783	0.383
11.1192	0.447
11.1602	0.614
11.2011	0.723
11.2421	0.786
11.283	0.8
11.324	0.815
11.365	0.827
11.4059	0.841
11.4469	0.843
11.4878	0.843
11.5288	0.853
11.5697	0.873
11.6107	0.882
11.6516	0.895
11.6926	0.902
11.7336	0.902
11.7745	0.889
11.8155	0.87
11.8564	0.849
11.8974	0.813
11.9383	0.771
11.9793	0.709
12.0202	0.605
12.0612	0.534
12.1022	0.592
12.1431	0.679
12.1841	0.738
12.225	0.771
12.266	0.778
12.3069	0.783
12.3479	0.793
12.3889	0.798
12.4298	0.795
12.4708	0.779
12.5117	0.745
12.5527	0.74
12.5936	0.771
12.6346	0.802
12.6755	0.81
12.7165	0.812
12.7575	0.805
12.7984	0.791
12.8394	0.784
12.8803	0.784
12.9213	0.791
12.9622	0.802
13.0032	0.81
13.0441	0.81
13.0851	0.8
13.1261	0.781
13.167	0.754
13.208	0.72
13.2489	0.708
13.2899	0.697
13.3308	0.682
13.3718	0.662
13.4128	0.639
13.4537	0.619
13.4947	0.602
13.5356	0.595
13.5766	0.621
13.6175	0.634
13.6585	0.639
13.6994	0.622
13.7404	0.593
13.7814	0.556
13.8223	0.525
13.8633	0.489
13.9042	0.457
13.9452	0.45
13.9861	0.459
14.0271	0.489
14.068	0.522
14.109	0.558
14.15	0.585
14.1909	0.607
14.2319	0.614
14.2728	0.604
14.3138	0.571
14.3547	0.542
14.3957	0.54
14.4366	0.576
14.4776	0.598
14.5186	0.617
14.5595	0.631
14.6005	0.646
14.6414	0.66
14.6824	0.667
14.7233	0.679
14.7643	0.684
14.8053	0.689
14.8462	0.689
14.8872	0.689
14.9281	0.684
14.9691	0.68
15.01	0.68
15.051	0.679
15.0919	0.675
15.1329	0.668
15.1739	0.667
15.2148	0.662
15.2558	0.658
15.2967	0.653
15.3377	0.653
15.3786	0.648
15.4196	0.638
15.4605	0.633
15.5015	0.631
15.5425	0.624
15.5834	0.612
15.6244	0.6
15.6653	0.581
15.7063	0.564
15.7472	0.554
15.7882	0.551
15.8292	0.551
15.8701	0.558
15.9111	0.563
15.952	0.575
15.993	0.578
