Infrared Spectrum: CYCLOHEXANECARBOXALDEHYDE, 4-HYDROXY METHYL-
Formula: C8 H14 O2
CAS: 92385-32-5
State: LIQUID
Class: COBLENTZ
Instrument: Not specified, most likely a prism, grating, or hybrid spectrometer.
Sampling: TRANSMISSION
Path length: SMEAR
Resolution: 4
Origin: TENNESSEE EASTMAN COMPANY, RESEARCH LABORATORIES
MICROMETERS	TRANSMITTANCE
1.993	0.972
2.03394	0.97
2.07488	0.964
2.11581	0.965
2.15675	0.965
2.19769	0.964
2.23863	0.952
2.27956	0.933
2.3205	0.928
2.36144	0.926
2.40238	0.931
2.44331	0.933
2.48425	0.929
2.52519	0.929
2.56613	0.938
2.60706	0.935
2.648	0.935
2.68894	0.938
2.72988	0.899
2.77081	0.673
2.81175	0.461
2.85269	0.309
2.89363	0.191
2.93456	0.138
2.9755	0.126
3.01644	0.155
3.05738	0.232
3.09831	0.312
3.13925	0.471
3.18019	0.594
3.22113	0.699
3.26206	0.758
3.303	0.796
3.34394	0.629
3.38488	0.03
3.42581	0.032
3.46675	0.061
3.50769	0.227
3.54863	0.386
3.58956	0.574
3.6305	0.591
3.67144	0.505
3.71238	0.5
3.75332	0.641
3.79425	0.747
3.83519	0.81
3.87613	0.842
3.91707	0.87
3.958	0.883
3.99894	0.897
4.03988	0.909
4.08082	0.923
4.12175	0.928
4.16269	0.929
4.20363	0.931
4.24457	0.936
4.2855	0.935
4.32644	0.935
4.36738	0.945
4.40832	0.952
4.44925	0.95
4.49019	0.953
4.53113	0.957
4.57207	0.958
4.613	0.958
4.65394	0.952
4.69488	0.952
4.73582	0.948
4.77675	0.943
4.81769	0.941
4.85863	0.943
4.89957	0.941
4.9405	0.948
4.98144	0.95
5.02238	0.958
5.06332	0.957
5.10425	0.957
5.14519	0.957
5.18613	0.958
5.22707	0.952
5.268	0.947
5.30894	0.952
5.34988	0.953
5.39082	0.952
5.43176	0.936
5.47269	0.931
5.51363	0.921
5.55457	0.907
5.59551	0.883
5.63644	0.863
5.67738	0.796
5.71832	0.562
5.75926	0.167
5.80019	0.039
5.84113	0.09
5.88207	0.341
5.92301	0.639
5.96394	0.728
6.00488	0.789
6.04582	0.832
6.08676	0.854
6.12769	0.878
6.16863	0.894
6.20957	0.9
6.25051	0.909
6.29144	0.912
6.33238	0.912
6.37332	0.907
6.41426	0.904
6.45519	0.899
6.49613	0.882
6.53707	0.875
6.57801	0.852
6.61894	0.835
6.65988	0.815
6.70082	0.716
6.74176	0.605
6.78269	0.464
6.82363	0.396
6.86457	0.135
6.90551	0.256
6.94644	0.429
6.98738	0.471
7.02832	0.47
7.06926	0.454
7.1102	0.435
7.15113	0.429
7.19207	0.458
7.23301	0.451
7.27395	0.451
7.31488	0.485
7.35582	0.476
7.39676	0.432
7.4377	0.43
7.47863	0.446
7.51957	0.475
7.56051	0.512
7.60145	0.529
7.64238	0.511
7.68332	0.55
7.72426	0.555
7.7652	0.509
7.80613	0.499
7.84707	0.533
7.88801	0.545
7.92895	0.529
7.96988	0.553
8.01082	0.547
8.05176	0.541
8.0927	0.594
8.13363	0.635
8.17457	0.639
8.21551	0.601
8.25645	0.603
8.29738	0.574
8.33832	0.591
8.37926	0.565
8.4202	0.576
8.46113	0.622
8.50207	0.639
8.54301	0.618
8.58395	0.55
8.62488	0.456
8.66582	0.423
8.70676	0.396
8.7477	0.34
8.78864	0.295
8.82957	0.268
8.87051	0.252
8.91145	0.229
8.95239	0.218
8.99332	0.208
9.03426	0.196
9.0752	0.172
9.11614	0.152
9.15707	0.152
9.19801	0.148
9.23895	0.147
9.27989	0.15
9.32082	0.153
9.36176	0.148
9.4027	0.124
9.44364	0.105
9.48457	0.09
9.52551	0.071
9.56645	0.061
9.60739	0.049
9.64832	0.037
9.68926	0.037
9.7302	0.047
9.77114	0.07
9.81207	0.121
9.85301	0.179
9.89395	0.239
9.93489	0.278
9.97582	0.295
10.0168	0.288
10.0577	0.258
10.0986	0.246
10.1396	0.254
10.1805	0.288
10.2214	0.336
10.2624	0.364
10.3033	0.379
10.3443	0.389
10.3852	0.4
10.4261	0.411
10.4671	0.434
10.508	0.452
10.549	0.48
10.5899	0.482
10.6308	0.475
10.6718	0.47
10.7127	0.459
10.7536	0.439
10.7946	0.425
10.8355	0.417
10.8765	0.429
10.9174	0.47
10.9583	0.499
10.9993	0.558
11.0402	0.579
11.0811	0.552
11.1221	0.56
11.163	0.579
11.204	0.613
11.2449	0.651
11.2858	0.666
11.3268	0.697
11.3677	0.728
11.4086	0.76
11.4496	0.784
11.4905	0.798
11.5315	0.803
11.5724	0.805
11.6133	0.805
11.6543	0.81
11.6952	0.818
11.7361	0.823
11.7771	0.823
11.818	0.822
11.859	0.811
11.8999	0.806
11.9408	0.806
11.9818	0.81
12.0227	0.811
12.0636	0.806
12.1046	0.8
12.1455	0.781
12.1865	0.758
12.2274	0.735
12.2683	0.711
12.3093	0.699
12.3502	0.687
12.3911	0.675
12.4321	0.664
12.473	0.671
12.514	0.695
12.5549	0.721
12.5958	0.736
12.6368	0.74
12.6777	0.733
12.7186	0.729
12.7596	0.738
12.8005	0.755
12.8415	0.757
12.8824	0.755
12.9233	0.736
12.9643	0.711
13.0052	0.68
13.0461	0.641
13.0871	0.625
13.128	0.622
13.169	0.652
13.2099	0.68
13.2508	0.699
13.2918	0.705
13.3327	0.711
13.3736	0.709
13.4146	0.709
13.4555	0.707
13.4965	0.7
13.5374	0.695
13.5783	0.688
13.6193	0.682
13.6602	0.676
13.7011	0.67
13.7421	0.666
13.783	0.661
13.824	0.654
13.8649	0.652
13.9058	0.647
13.9468	0.646
13.9877	0.639
14.0286	0.634
14.0696	0.627
14.1105	0.618
14.1515	0.617
14.1924	0.611
14.2333	0.606
14.2743	0.605
14.3152	0.596
14.3561	0.596
14.3971	0.591
14.438	0.589
14.479	0.586
14.5199	0.584
14.5608	0.582
14.6018	0.579
14.6427	0.577
14.6836	0.579
14.7246	0.577
14.7655	0.579
14.8065	0.579
14.8474	0.579
14.8883	0.577
14.9293	0.579
14.9702	0.581
15.0111	0.586
15.0521	0.586
15.093	0.581
15.134	0.584
15.1749	0.589
15.2158	0.586
15.2568	0.586
15.2977	0.586
15.3386	0.586
15.3796	0.586
15.4205	0.588
15.4615	0.588
15.5024	0.586
15.5433	0.586
15.5843	0.586
15.6252	0.586
15.6661	0.586
15.7071	0.586
15.748	0.586
15.789	0.582
15.8299	0.586
15.8708	0.584
15.9118	0.584
15.9527	0.582
