Infrared Spectrum: 1,5-Hexadien-3-ol
Formula: C 6 H 10 O
CAS: 924-41-4
State: gas
Origin: EPA-IR VAPOR PHASE LIBRARY
1/CM	ABSORBANCE
501.5	0.00114
513.074	0.00112
524.648	0.00134
536.222	0.00127
547.796	0.00136
559.37	0.00138
570.944	0.00126
582.518	0.00126
594.092	0.00141
605.666	0.00167
617.24	0.00202
628.814	0.00245
640.388	0.00262
651.962	0.00284
663.536	0.00327
675.11	0.00354
686.684	0.00314
698.258	0.00247
709.832	0.00183
721.406	0.00158
732.98	0.00162
744.554	0.00173
756.128	0.00148
767.702	0.0011
779.276	0.00101
790.85	0.0009597
802.423	0.0011
813.997	0.00135
825.571	0.00194
837.145	0.00261
848.719	0.00347
860.293	0.00403
871.867	0.00433
883.441	0.00484
895.015	0.00708
906.589	0.01339
918.163	0.02144
929.737	0.02138
941.311	0.01411
952.885	0.0089
964.459	0.00901
976.033	0.0136
987.607	0.01893
999.181	0.02051
1010.76	0.01835
1022.33	0.01738
1033.9	0.01617
1045.48	0.01333
1057.05	0.01025
1068.63	0.00808
1080.2	0.00704
1091.77	0.00634
1103.35	0.00635
1114.92	0.00668
1126.49	0.00659
1138.07	0.00566
1149.64	0.0044
1161.22	0.00353
1172.79	0.00318
1184.36	0.00362
1195.94	0.00448
1207.51	0.00531
1219.09	0.00571
1230.66	0.00576
1242.23	0.00569
1253.81	0.00579
1265.38	0.00576
1276.96	0.00546
1288.53	0.00511
1300.1	0.00484
1311.68	0.00485
1323.25	0.0051
1334.83	0.00548
1346.4	0.00568
1357.97	0.00556
1369.55	0.00505
1381.12	0.00433
1392.7	0.00406
1404.27	0.00517
1415.84	0.00708
1427.42	0.0077
1438.99	0.0063
1450.57	0.00382
1462.14	0.00207
1473.71	0.00129
1485.29	0.00103
1496.86	0.0008638
1508.44	0.0007343
1520.01	0.0007015
1531.58	0.0006595
1543.16	0.0006526
1554.73	0.0006369
1566.31	0.0006488
1577.88	0.0006852
1589.45	0.0007691
1601.03	0.000965
1612.6	0.00143
1624.18	0.00284
1635.75	0.00495
1647.32	0.00504
1658.9	0.00264
1670.47	0.00101
1682.05	0.0005723
1693.62	0.0004349
1705.19	0.0003583
1716.77	0.0003183
1728.34	0.0003076
1739.92	0.0002524
1751.49	0.0002191
1763.06	0.0002341
1774.64	0.0002714
1786.21	0.0002796
1797.79	0.0003321
1809.36	0.0004607
1820.93	0.0009145
1832.51	0.00169
1844.08	0.00225
1855.66	0.002
1867.23	0.00124
1878.8	0.0006516
1890.38	0.000445
1901.95	0.0003522
1913.53	0.0003473
1925.1	0.000331
1936.67	0.0003047
1948.25	0.0002838
1959.82	0.000363
1971.4	0.0004374
1982.97	0.0004166
1994.54	0.0003554
2006.12	0.000276
2017.69	0.0002513
2029.27	0.0002279
2040.84	0.0002359
2052.41	0.0002059
2063.99	0.0001819
2075.56	0.0001832
2087.14	0.000179
2098.71	0.0001818
2110.28	0.0001709
2121.86	0.0001551
2133.43	0.0001738
2145.01	0.0001552
2156.58	0.0001428
2168.15	0.0001253
2179.73	0.0001255
2191.3	0.0001074
2202.88	9.332e-05
2214.45	0.0001568
2226.02	0.0001719
2237.6	0.0001621
2249.17	0.000171
2260.74	0.0001776
2272.32	0.0001978
2283.89	0.0001636
2295.47	0.0001593
2307.04	0.0001877
2318.61	0.0001761
2330.19	0.000119
2341.76	0.0001777
2353.34	0.0001476
2364.91	0.0001812
2376.48	0.0001513
2388.06	0.0001608
2399.63	0.0001909
2411.21	0.0001785
2422.78	0.0001806
2434.35	0.0001903
2445.93	0.0001588
2457.5	0.0002095
2469.08	0.0001851
2480.65	0.0001947
2492.22	0.0001772
2503.8	0.0002073
2515.37	0.0001876
2526.95	0.0002108
2538.52	0.0002207
2550.09	0.000246
2561.67	0.0002603
2573.24	0.0002343
2584.82	0.000257
2596.39	0.0002299
2607.96	0.0002779
2619.54	0.0002544
2631.11	0.0002912
2642.69	0.0002985
2654.26	0.000327
2665.83	0.0003118
2677.41	0.000354
2688.98	0.0003404
2700.56	0.0003387
2712.13	0.0003854
2723.7	0.0003519
2735.28	0.0003998
2746.85	0.0003971
2758.43	0.0004343
2770	0.0004599
2781.57	0.0005093
2793.15	0.0006248
2804.72	0.0007436
2816.3	0.0011
2827.87	0.00184
2839.44	0.00288
2851.02	0.00426
2862.59	0.00557
2874.17	0.00637
2885.74	0.00669
2897.31	0.00732
2908.89	0.00875
2920.46	0.00997
2932.04	0.00962
2943.61	0.00779
2955.18	0.00559
2966.76	0.00481
2978.33	0.00622
2989.91	0.00765
3001.48	0.00779
3013.05	0.0068
3024.63	0.00531
3036.2	0.00361
3047.78	0.00316
3059.35	0.00407
3070.92	0.0068
3082.5	0.0108
3094.07	0.0102
3105.65	0.00531
3117.22	0.00194
3128.79	0.0009636
3140.37	0.0006644
3151.94	0.0005016
3163.52	0.0004517
3175.09	0.0003009
3186.66	0.0002692
3198.24	0.0001574
3209.81	0.000245
3221.39	0.0001787
3232.96	0.0001575
3244.53	0.0001492
3256.11	0.0001826
3267.68	0.0002159
3279.26	0.0001629
3290.83	0.0001613
3302.4	0.0002025
3313.98	0.0001803
3325.55	0.0001486
3337.13	0.0001616
3348.7	0.0002354
3360.27	0.000225
3371.85	0.0002597
3383.42	0.0002551
3395	0.0002919
3406.57	0.0003004
3418.14	0.0002757
3429.72	0.0003144
3441.29	0.000203
3452.86	0.0003051
3464.44	0.0002844
3476.01	0.0003198
3487.59	0.0002882
3499.16	0.0002972
3510.73	0.0003062
3522.31	0.0002168
3533.88	0.0003097
3545.46	0.0003476
3557.03	0.0003092
3568.6	0.0003514
3580.18	0.0004667
3591.75	0.0008579
3603.33	0.00149
3614.9	0.00221
3626.47	0.00296
3638.05	0.00431
3649.62	0.00458
3661.2	0.00336
3672.77	0.00155
3684.34	0.0006855
3695.92	0.0004568
3707.49	0.0004011
3719.07	0.0003377
3730.64	0.0002775
3742.21	0.0002949
3753.79	0.000222
3765.36	0.0001877
3776.94	0.0001963
3788.51	0.0002188
3800.08	0.0001424
3811.66	0.0002124
3823.23	0.0002522
3834.81	0.0002972
3846.38	0.0003064
3857.95	0.0002865
3869.53	0.0003024
3881.1	0.0002942
3892.68	0.0002712
3904.25	0.0002808
3915.82	0.0002916
3927.4	0.0002131
3938.97	0.0001084
3950.55	0.0001902
3962.12	0.0002328
3973.69	0.0001784
3985.27	0.0001182
3996.84	0.0002216
