Infrared Spectrum: ACETANILIDE, 2-CYCLOHEXYL-
Formula: C14 H19 N O
CAS: 92499-34-8
State: SOLID (OIL MULL)
Class: COBLENTZ III
Instrument: BECKMAN IR-4 (HYBRID PRISM-GRATING)
Instrument parameters: NaCl PRISM
Sampling: TRANSMISSION
Resolution: 2
Origin: MONSANTO (J. FREEMAN)
1/CM	TRANSMITTANCE
4000	0.6004
3991	0.6025
3982	0.6047
3973	0.6068
3964	0.609
3955	0.611
3946	0.6132
3937	0.6154
3928	0.6174
3919	0.6195
3910	0.6216
3901	0.6238
3892	0.6259
3883	0.628
3874	0.6301
3865	0.632
3856	0.6341
3847	0.6362
3838	0.6381
3829	0.6401
3820	0.6422
3811	0.6444
3802	0.6465
3793	0.6487
3784	0.6508
3775	0.653
3766	0.6551
3757	0.6572
3748	0.6591
3739	0.6608
3730	0.6625
3721	0.6642
3712	0.6658
3703	0.6672
3694	0.6685
3685	0.6695
3676	0.6707
3667	0.6718
3658	0.6728
3649	0.674
3640	0.675
3631	0.676
3622	0.6769
3613	0.6778
3604	0.6786
3595	0.6793
3586	0.6799
3577	0.6806
3568	0.6812
3559	0.6818
3550	0.6822
3541	0.6828
3532	0.6828
3523	0.683
3514	0.683
3505	0.6826
3496	0.6822
3487	0.6819
3478	0.6805
3469	0.6788
3460	0.6761
3451	0.6731
3442	0.6696
3433	0.6635
3424	0.6575
3415	0.6508
3406	0.6445
3397	0.6353
3388	0.6242
3379	0.612
3370	0.5766
3361	0.5557
3352	0.526
3343	0.4746
3334	0.4225
3325	0.37
3316	0.3173
3307	0.2644
3298	0.211
3289	0.1729
3280	0.1729
3271	0.1813
3262	0.2044
3253	0.2277
3244	0.2458
3235	0.2527
3226	0.2599
3217	0.2913
3208	0.3273
3199	0.3568
3190	0.365
3181	0.3732
3172	0.3818
3163	0.3902
3154	0.3987
3145	0.4082
3136	0.4077
3127	0.3895
3118	0.3627
3109	0.3358
3100	0.3087
3091	0.2814
3082	0.2592
3073	0.2503
3064	0.2424
3055	0.2304
3046	0.1932
3037	0.1461
3028	0.0988
3019	0.0511
3010	0.0103
3001	0.005
2992	0.0049
2983	0.006
2974	0.0092
2965	0.013
2956	0.0182
2947	0.0238
2938	0.0289
2929	0.0343
2920	0.0417
2911	0.0555
2902	0.0709
2893	0.0858
2884	0.1586
2875	0.3312
2866	0.5017
2857	0.5278
2848	0.5664
2839	0.6053
2830	0.6444
2821	0.6711
2812	0.6784
2803	0.6821
2794	0.6849
2785	0.6869
2776	0.6888
2767	0.6903
2758	0.6917
2749	0.6922
2740	0.6926
2731	0.6932
2722	0.6939
2713	0.6957
2704	0.6986
2695	0.7034
2686	0.7104
2677	0.7191
2668	0.7272
2659	0.7339
2650	0.7431
2641	0.7543
2632	0.7648
2623	0.7742
2614	0.783
2605	0.7894
2596	0.7945
2587	0.7965
2578	0.7988
2569	0.8011
2560	0.8037
2551	0.8064
2542	0.8089
2533	0.8115
2524	0.8143
2515	0.8169
2506	0.8196
2497	0.8218
2488	0.8238
2479	0.8256
2470	0.8271
2461	0.8288
2452	0.8308
2443	0.833
2434	0.8349
2425	0.8546
2416	0.877
2407	0.8808
2398	0.8804
2389	0.8782
2380	0.8743
2371	0.8701
2362	0.8658
2353	0.8621
2344	0.8594
2335	0.8578
2326	0.8575
2317	0.8577
2308	0.8588
2299	0.8604
2290	0.8623
2281	0.8642
2272	0.866
2263	0.8677
2254	0.8694
2245	0.8725
2236	0.8765
2227	0.8802
2218	0.8828
2209	0.885
2200	0.8863
2191	0.8875
2182	0.8898
2173	0.8923
2164	0.8949
2155	0.8966
2146	0.8978
2137	0.8992
2128	0.9007
2119	0.9025
2110	0.9048
2101	0.9073
2092	0.9092
2083	0.9094
2074	0.9092
2065	0.9101
2056	0.9118
2047	0.9143
2038	0.917
2029	0.9201
2020	0.9214
2011	0.923
2002	0.923
1993	0.9209
1984	0.9175
1975	0.9155
1966	0.9228
1957	0.9298
1948	0.924
1939	0.9036
1930	0.9154
1921	0.9293
1912	0.9352
1903	0.9371
1894	0.9368
1885	0.9359
1876	0.9354
1867	0.9348
1858	0.9345
1849	0.936
1840	0.94
1831	0.9413
1822	0.9355
1813	0.9336
1804	0.9345
1795	0.9516
1786	0.9492
1777	0.9487
1768	0.9458
1759	0.9375
1750	0.9221
1741	0.8984
1732	0.8659
1723	0.7975
1714	0.7346
1705	0.5615
1696	0.2689
1687	0.1781
1678	0.0864
1669	0.056
1660	0.0842
1651	0.172
1642	0.2879
1633	0.4124
1624	0.48
1615	0.5493
1606	0.385
1597	0.3343
1588	0.5831
1579	0.5644
1570	0.3772
1561	0.1878
1552	0.0752
1543	0.2213
1534	0.3352
1525	0.4299
1516	0.495
1507	0.4573
1498	0.3148
1489	0.2848
1480	0.1587
1471	0.0954
1462	0.0816
1453	0.1721
1444	0.3191
1435	0.4609
1426	0.564
1417	0.6008
1408	0.5995
1399	0.4635
1390	0.2573
1381	0.1458
1372	0.5147
1363	0.6047
1354	0.6122
1345	0.63
1336	0.6517
1327	0.6386
1318	0.4003
1309	0.1714
1300	0.3062
1291	0.4854
1282	0.5156
1273	0.5919
1264	0.6884
1255	0.7558
1246	0.7258
1237	0.7689
1228	0.7891
1219	0.8182
1210	0.8532
1201	0.8648
1192	0.867
1183	0.8711
1174	0.8711
1165	0.8413
1156	0.8862
1147	0.8377
1138	0.8825
1129	0.9196
1120	0.9275
1111	0.9348
1102	0.9252
1093	0.8668
1084	0.8935
1075	0.915
1066	0.9215
1057	0.8387
1048	0.8158
1039	0.833
1030	0.8837
1021	0.8267
1012	0.7058
1003	0.5874
994	0.7828
985	0.8497
976	0.7437
967	0.8252
958	0.9073
949	0.9121
940	0.8971
931	0.9351
922	0.9347
913	0.9495
904	0.942
895	0.7037
886	0.9444
877	0.9616
868	0.9005
859	0.9258
850	0.9575
841	0.9701
832	0.9623
823	0.9267
814	0.9712
805	0.969
796	0.9528
787	0.9268
778	0.8836
769	0.8306
760	0.6515
751	0.0421
742	0.5389
733	0.5944
724	0.5836
715	0.689
706	0.7872
697	0.8627
688	0.9155
679	0.9442
670	0.8841
661	0.9933
652	1.0187
643	1.0183
634	0.9954
