Infrared Spectrum: 9H-Purine, 2-Amino-6-Aziridinyl-9-Benzyl-
Formula: C14 H14 N6
CAS: 92495-26-6
State: SOLID (0.8 mg / 650 mg KBr DISC)
Class: COBLENTZ III
Instrument: PERKIN-ELMER 21 (GRATING)
Instrument parameters: FILTER CHANGE ABOUT 1020 CM^-^1
Sampling: TRANSMISSION
Resolution: 2
Origin: SOUTHERN RESEARCH INSTITUTE
1/CM	TRANSMITTANCE
603.67	0.4944
612.697	0.4958
621.725	0.4945
630.752	0.492
639.779	0.4895
648.807	0.4889
657.834	0.4838
666.861	0.4755
675.889	0.4497
684.916	0.4082
693.944	0.4095
702.971	0.4693
711.998	0.4212
721.026	0.375
730.053	0.3669
739.08	0.5778
748.108	0.6334
757.135	0.6344
766.162	0.6331
775.19	0.6578
784.217	0.5933
793.244	0.5331
802.272	0.5868
811.299	0.6741
820.326	0.7158
829.354	0.6614
838.381	0.6311
847.409	0.7107
856.436	0.6913
865.463	0.7031
874.491	0.7027
883.518	0.6997
892.545	0.7268
901.573	0.7281
910.6	0.723
919.627	0.7134
928.655	0.7045
937.682	0.705
946.709	0.6731
955.737	0.6365
964.764	0.6837
973.791	0.6686
982.819	0.6343
991.846	0.5766
1000.87	0.5168
1009.9	0.5101
1018.93	0.4849
1027.96	0.4396
1036.98	0.4844
1046.01	0.4814
1055.04	0.6388
1064.06	0.6292
1073.09	0.5761
1082.12	0.5803
1091.15	0.5699
1100.17	0.5985
1109.2	0.6161
1118.23	0.6175
1127.26	0.6119
1136.28	0.5936
1145.31	0.5439
1154.34	0.5439
1163.37	0.5672
1172.39	0.5583
1181.42	0.5158
1190.45	0.4802
1199.48	0.5883
1208.5	0.5787
1217.53	0.5229
1226.56	0.4753
1235.58	0.6238
1244.61	0.6253
1253.64	0.6153
1262.67	0.5928
1271.69	0.5471
1280.72	0.4919
1289.75	0.3753
1298.78	0.269
1307.8	0.3813
1316.83	0.3832
1325.86	0.4364
1334.89	0.488
1343.91	0.4639
1352.94	0.335
1361.97	0.3084
1370.99	0.4861
1380.02	0.4679
1389.05	0.3823
1398.08	0.2886
1407.1	0.1634
1416.13	0.3189
1425.16	0.2567
1434.19	0.2305
1443.21	0.2557
1452.24	0.2536
1461.27	0.2678
1470.3	0.3584
1479.32	0.4025
1488.35	0.5167
1497.38	0.4221
1506.41	0.4346
1515.43	0.4393
1524.46	0.4539
1533.49	0.5292
1542.51	0.4075
1551.54	0.3619
1560.57	0.3418
1569.6	0.1814
1578.62	0.0343
1587.65	0.1271
1596.68	0.1437
1605.71	0.1123
1614.73	0.232
1623.76	0.2964
1632.79	0.2256
1641.82	0.2385
1650.84	0.4773
1659.87	0.5397
1668.9	0.6415
1677.92	0.6712
1686.95	0.7335
1695.98	0.7693
1705.01	0.8037
1714.03	0.8276
1723.06	0.8368
1732.09	0.8405
1741.12	0.8438
1750.14	0.8467
1759.17	0.8497
1768.2	0.8515
1777.23	0.854
1786.25	0.8485
1795.28	0.8485
1804.31	0.8503
1813.34	0.8529
1822.36	0.8532
1831.39	0.8516
1840.42	0.8478
1849.44	0.8436
1858.47	0.8444
1867.5	0.85
1876.53	0.8458
1885.55	0.8504
1894.58	0.852
1903.61	0.85
1912.64	0.8475
1921.66	0.8446
1930.69	0.8415
1939.72	0.8378
1948.75	0.8342
1957.77	0.8332
1966.8	0.8322
1975.83	0.83
1984.85	0.8285
1993.88	0.8324
2002.91	0.8331
2011.94	0.8314
2020.96	0.831
2029.99	0.8297
2039.02	0.828
2048.05	0.8262
2057.07	0.8245
2066.1	0.8245
2075.13	0.8267
2084.16	0.8271
2093.18	0.826
2102.21	0.8241
2111.24	0.8216
2120.27	0.8163
2129.29	0.8107
2138.32	0.8087
2147.35	0.8081
2156.37	0.8073
2165.4	0.806
2174.43	0.8045
2183.46	0.803
2192.48	0.8014
2201.51	0.7999
2210.54	0.7984
2219.57	0.7979
2228.59	0.7981
2237.62	0.7963
2246.65	0.7906
2255.68	0.788
2264.7	0.7861
2273.73	0.785
2282.76	0.7839
2291.78	0.7832
2300.81	0.7825
2309.84	0.7816
2318.87	0.7814
2327.89	0.7815
2336.92	0.7818
2345.95	0.7829
2354.98	0.7825
2364	0.7808
2373.03	0.7767
2382.06	0.7707
2391.09	0.7648
2400.11	0.7599
2409.14	0.7561
2418.17	0.7525
2427.2	0.7489
2436.22	0.7456
2445.25	0.7435
2454.28	0.7424
2463.3	0.7415
2472.33	0.7404
2481.36	0.7399
2490.39	0.7398
2499.41	0.7396
2508.44	0.739
2517.47	0.7383
2526.5	0.7375
2535.52	0.7356
2544.55	0.7339
2553.58	0.7324
2562.61	0.7297
2571.63	0.7265
2580.66	0.7234
2589.69	0.7209
2598.71	0.7191
2607.74	0.7177
2616.77	0.7159
2625.8	0.7136
2634.82	0.7105
2643.85	0.7069
2652.88	0.6993
2661.91	0.6868
2670.93	0.672
2679.96	0.6588
2688.99	0.6476
2698.02	0.639
2707.04	0.6349
2716.07	0.6325
2725.1	0.6299
2734.13	0.6285
2743.15	0.6287
2752.18	0.6312
2761.21	0.6335
2770.23	0.6351
2779.26	0.633
2788.29	0.6302
2797.32	0.6257
2806.34	0.6202
2815.37	0.6125
2824.4	0.6026
2833.43	0.5925
2842.45	0.5824
2851.48	0.5717
2860.51	0.5611
2869.54	0.5536
2878.56	0.5477
2887.59	0.5435
2896.62	0.5404
2905.64	0.5381
2914.67	0.5364
2923.7	0.5354
2932.73	0.535
2941.75	0.5326
2950.78	0.5199
2959.81	0.5098
2968.84	0.5162
2977.86	0.5276
2986.89	0.5452
2995.92	0.537
3004.95	0.5197
3013.97	0.5186
3023	0.5117
3032.03	0.5053
3041.06	0.5003
3050.08	0.4958
3059.11	0.4882
3068.14	0.4664
3077.16	0.4472
3086.19	0.4316
3095.22	0.4196
3104.25	0.4082
3113.27	0.3978
3122.3	0.3887
3131.33	0.3806
3140.36	0.372
3149.38	0.3506
3158.41	0.3119
3167.44	0.2788
3176.47	0.2498
3185.49	0.2358
3194.52	0.2299
3203.55	0.2309
3212.57	0.2382
3221.6	0.2632
3230.63	0.2943
3239.66	0.3036
3248.68	0.3106
3257.71	0.3098
3266.74	0.2976
3275.77	0.2855
3284.79	0.2739
3293.82	0.2635
3302.85	0.2558
3311.88	0.2504
3320.9	0.248
3329.93	0.2499
3338.96	0.2555
3347.99	0.2606
3357.01	0.2666
3366.04	0.2714
3375.07	0.2742
3384.09	0.278
3393.12	0.2833
3402.15	0.3015
3411.18	0.3305
3420.2	0.3518
3429.23	0.3785
3438.26	0.4057
3447.29	0.4279
3456.31	0.4525
3465.34	0.4656
3474.37	0.4775
3483.4	0.4869
3492.42	0.4971
3501.45	0.5099
3510.48	0.5324
3519.5	0.5585
3528.53	0.5775
3537.56	0.5874
3546.59	0.5948
3555.61	0.6024
3564.64	0.6102
3573.67	0.6173
3582.7	0.6257
3591.72	0.6459
3600.75	0.6645
3609.78	0.6703
3618.81	0.6847
3627.83	0.6977
3636.86	0.7085
3645.89	0.716
3654.92	0.7186
3663.94	0.7197
3672.97	0.721
3682	0.7222
3691.02	0.7235
3700.05	0.7237
3709.08	0.7237
3718.11	0.7238
3727.13	0.7242
3736.16	0.7246
3745.19	0.7248
3754.22	0.725
3763.24	0.7251
3772.27	0.7252
3781.3	0.7253
3790.33	0.7255
3799.35	0.7256
3808.38	0.7256
3817.41	0.7245
3826.43	0.7223
3835.46	0.7191
3844.49	0.7158
3853.52	0.7144
3862.54	0.714
3871.57	0.7144
3880.6	0.7149
3889.63	0.715
3898.65	0.713
3907.68	0.7082
3916.71	0.7033
3925.74	0.702
3934.76	0.7025
3943.79	0.7011
3952.82	0.6955
3961.85	0.6909
3970.87	0.6895
3979.9	0.6879
3988.93	0.6878
3997.95	0.6853
4006.98	0.6744
