Infrared Spectrum: M-NITRO CARBANILIC ACID, n-BUTYL ESTER
Formula: C11 H14 N2 O4
CAS: 92491-58-2
State: SOLID (1.6 mg / 200 mg KBr)
Class: COBLENTZ
Instrument: Not specified, most likely a grating spectrometer.
Sampling: TRANSMISSION
Resolution: 4
Origin: CITRUS EXPERIMENT STATION, UNIVERSITY OF FLORIDA (G. EDWARDS)
MICROMETERS	TRANSMITTANCE
2.027	0.279
2.06014	0.28
2.09329	0.283
2.12643	0.289
2.15957	0.291
2.19271	0.289
2.22586	0.295
2.259	0.296
2.29214	0.297
2.32529	0.3
2.35843	0.301
2.39157	0.309
2.42471	0.315
2.45786	0.316
2.491	0.317
2.52414	0.328
2.55729	0.336
2.59043	0.335
2.62357	0.337
2.65671	0.337
2.68986	0.341
2.723	0.341
2.75614	0.339
2.78929	0.337
2.82243	0.331
2.85557	0.323
2.88871	0.303
2.92186	0.257
2.955	0.113
2.98814	0.226
3.02129	0.311
3.05443	0.332
3.08757	0.349
3.12071	0.353
3.15386	0.341
3.187	0.327
3.22014	0.34
3.25329	0.353
3.28643	0.348
3.31957	0.307
3.35271	0.191
3.38586	0.24
3.419	0.271
3.45214	0.313
3.48529	0.36
3.51843	0.392
3.55157	0.4
3.58471	0.401
3.61786	0.41
3.651	0.421
3.68414	0.425
3.71729	0.428
3.75043	0.436
3.78357	0.438
3.81671	0.442
3.84986	0.445
3.883	0.449
3.91614	0.45
3.94929	0.453
3.98243	0.454
4.01557	0.454
4.04871	0.454
4.08186	0.457
4.115	0.468
4.14814	0.47
4.18129	0.474
4.21443	0.484
4.24757	0.485
4.28071	0.485
4.31386	0.484
4.347	0.485
4.38014	0.486
4.41329	0.49
4.44643	0.493
4.47957	0.496
4.51271	0.498
4.54586	0.501
4.579	0.506
4.61214	0.51
4.64529	0.509
4.67843	0.513
4.71157	0.515
4.74471	0.515
4.77786	0.517
4.811	0.522
4.84414	0.525
4.87729	0.526
4.91043	0.526
4.94357	0.53
4.97671	0.531
5.00986	0.531
5.043	0.531
5.07614	0.533
5.10929	0.537
5.14243	0.539
5.17557	0.537
5.20871	0.534
5.24186	0.534
5.275	0.542
5.30814	0.543
5.34129	0.545
5.37443	0.539
5.40757	0.535
5.44071	0.526
5.47386	0.519
5.507	0.506
5.54014	0.496
5.57329	0.492
5.60643	0.481
5.63957	0.461
5.67271	0.405
5.70586	0.291
5.739	0.222
5.77214	0.179
5.80529	0.212
5.83843	0.333
5.87157	0.44
5.90471	0.458
5.93786	0.47
5.971	0.484
6.00414	0.47
6.03729	0.43
6.07043	0.421
6.10357	0.377
6.13671	0.372
6.16986	0.381
6.203	0.344
6.23614	0.305
6.26929	0.327
6.30243	0.279
6.33557	0.15
6.36871	0.119
6.40186	0.171
6.435	0.224
6.46814	0.321
6.50129	0.361
6.53443	0.453
6.56757	0.47
6.60071	0.477
6.63386	0.469
6.667	0.446
6.70014	0.41
6.73329	0.392
6.76643	0.392
6.79957	0.418
6.83271	0.452
6.86586	0.452
6.899	0.428
6.93214	0.384
6.96529	0.464
6.99843	0.535
7.03157	0.553
7.06471	0.553
7.09786	0.551
7.131	0.543
7.16414	0.53
7.19729	0.488
7.23043	0.436
7.26357	0.401
7.29671	0.297
7.32986	0.143
7.363	0.057
7.39614	0.054
7.42929	0.081
7.46243	0.135
7.49557	0.187
7.52871	0.232
7.56186	0.357
7.595	0.417
7.62814	0.401
7.66129	0.376
7.69443	0.3
7.72757	0.143
7.76071	0.232
7.79386	0.405
7.827	0.478
7.86014	0.472
7.89329	0.43
7.92643	0.357
7.95957	0.296
7.99271	0.163
8.02586	0.03
8.059	0.031
8.09214	0.043
8.12529	0.054
8.15843	0.115
8.19157	0.226
8.22471	0.344
8.25786	0.42
8.291	0.493
8.32414	0.543
8.35729	0.582
8.39043	0.593
8.42357	0.601
8.45671	0.589
8.48986	0.563
8.523	0.553
8.55614	0.611
8.58929	0.638
8.62243	0.646
8.65557	0.646
8.68871	0.648
8.72186	0.664
8.755	0.666
8.78814	0.658
8.82129	0.627
8.85443	0.578
8.88757	0.597
8.92071	0.61
8.95386	0.582
8.987	0.538
9.02014	0.461
9.05329	0.417
9.08643	0.34
9.11957	0.308
9.15271	0.34
9.18586	0.416
9.219	0.442
9.25214	0.388
9.28529	0.257
9.31843	0.236
9.35157	0.377
9.38471	0.518
9.41786	0.597
9.451	0.634
9.48414	0.638
9.51729	0.617
9.55043	0.582
9.58357	0.639
9.61671	0.698
9.64986	0.731
9.683	0.751
9.71614	0.76
9.74929	0.761
9.78243	0.76
9.81557	0.756
9.84871	0.755
9.88186	0.755
9.915	0.76
9.94814	0.75
9.98129	0.706
10.0144	0.672
10.0476	0.761
10.0807	0.789
10.1139	0.789
10.147	0.789
10.1801	0.789
10.2133	0.789
10.2464	0.788
10.2796	0.789
10.3127	0.799
10.3459	0.8
10.379	0.801
10.4121	0.803
10.4453	0.803
10.4784	0.803
10.5116	0.803
10.5447	0.8
10.5779	0.779
10.611	0.718
10.6441	0.642
10.6773	0.583
10.7104	0.644
10.7436	0.707
10.7767	0.753
10.8099	0.771
10.843	0.791
10.8761	0.805
10.9093	0.809
10.9424	0.815
10.9756	0.819
11.0087	0.811
11.0419	0.8
11.075	0.784
11.1081	0.726
11.1413	0.611
11.1744	0.464
11.2076	0.506
11.2407	0.662
11.2739	0.759
11.307	0.801
11.3401	0.833
11.3733	0.853
11.4064	0.872
11.4396	0.873
11.4727	0.872
11.5059	0.868
11.539	0.859
11.5721	0.839
11.6053	0.807
11.6384	0.759
11.6716	0.738
11.7047	0.756
11.7379	0.805
11.771	0.853
11.8041	0.88
11.8373	0.88
11.8704	0.878
11.9036	0.878
11.9367	0.88
11.9699	0.881
12.003	0.869
12.0361	0.851
12.0693	0.816
12.1024	0.777
12.1356	0.715
12.1687	0.574
12.2019	0.531
12.235	0.658
12.2681	0.781
12.3013	0.792
12.3344	0.757
12.3676	0.609
12.4007	0.461
12.4339	0.553
12.467	0.679
12.5001	0.707
12.5333	0.787
12.5664	0.872
12.5996	0.901
12.6327	0.905
12.6659	0.902
12.699	0.898
12.7321	0.878
12.7653	0.853
12.7984	0.805
12.8316	0.734
12.8647	0.579
12.8979	0.43
12.931	0.41
12.9641	0.523
12.9973	0.571
13.0304	0.558
13.0636	0.599
13.0967	0.702
13.1299	0.836
13.163	0.904
13.1961	0.926
13.2293	0.946
13.2624	0.945
13.2956	0.942
13.3287	0.93
13.3619	0.901
13.395	0.86
13.4281	0.776
13.4613	0.61
13.4944	0.413
13.5276	0.289
13.5607	0.296
13.5939	0.359
13.627	0.503
13.6601	0.666
13.6933	0.795
13.7264	0.901
13.7596	0.944
13.7927	0.965
13.8259	0.996
13.859	1.013
13.8921	1.014
13.9253	1.014
13.9584	1.014
13.9916	1.014
14.0247	1.014
14.0579	1.014
14.091	1.015
14.1241	1.015
14.1573	1.015
14.1904	1.015
14.2236	1.013
14.2567	1.011
14.2899	1.007
14.323	0.997
14.3561	0.982
14.3893	0.96
14.4224	0.929
14.4556	0.898
14.4887	0.855
14.5219	0.8
14.555	0.719
14.5881	0.628
14.6213	0.591
14.6544	0.611
14.6876	0.666
14.7207	0.74
14.7539	0.777
14.787	0.777
14.8201	0.759
14.8533	0.728
14.8864	0.71
14.9196	0.688
14.9527	0.682
14.9859	0.682
15.019	0.682
