Infrared Spectrum: 1,3,6-HEPTATRIENE, 5-METHYL-
Formula: C8 H12
CAS: 925-52-0
State: SOLUTION (10% IN CCl4 FOR 3800-1300, 10% IN CS2 FOR 1300-620, AND 10% CCl4 FPR 620-250 CM^-^1) VERSUS SOLVENT
Class: COBLENTZ III
Instrument: PERKIN-ELMER 521 (GRATING)
Instrument parameters: FILTERS AT 3150, 2500, 2000, 1150, 700, 410; GRATING CHANGES AT 2000, 630 CM^-^1
Sampling: TRANSMISSION
Path length: 0.012, 0.011, AND 0.010 CM (CsBr CELL)
Resolution: 4
Origin: DOW CORNING CORP.
1/CM	TRANSMITTANCE
238.325	0.878
247.268	0.869
256.21	0.873
265.153	0.883
274.095	0.881
283.038	0.885
291.98	0.885
300.923	0.895
309.865	0.899
318.808	0.901
327.751	0.901
336.693	0.902
345.636	0.897
354.578	0.89
363.521	0.89
372.463	0.88
381.406	0.861
390.348	0.855
399.291	0.862
408.234	0.868
417.176	0.875
426.119	0.869
435.061	0.873
444.004	0.871
452.946	0.864
461.889	0.864
470.831	0.89
479.774	0.869
488.717	0.847
497.659	0.838
506.602	0.85
515.544	0.848
524.487	0.857
533.429	0.859
542.372	0.848
551.314	0.838
560.257	0.838
569.2	0.845
578.142	0.848
587.085	0.845
596.027	0.847
604.97	0.843
613.912	0.833
622.855	0.81
631.797	0.7531
640.74	0.673
649.683	0.717
658.625	0.739
667.568	0.734
676.51	0.697
685.453	0.664
694.395	0.723
703.338	0.748
712.281	0.781
721.223	0.852
730.166	0.873
739.108	0.888
748.051	0.887
756.993	0.901
765.936	0.902
774.878	0.904
783.821	0.892
792.764	0.878
801.706	0.866
810.649	0.824
819.591	0.836
828.534	0.802
837.476	0.758
846.419	0.723
855.361	0.713
864.304	0.779
873.247	0.727
882.189	0.579
891.132	0.1628
900.074	0.0899
909.017	0.005
917.959	0.1591
926.902	0.5458
935.844	0.595
944.787	0.27
953.73	0.4472
962.672	0.501
971.615	0.432
980.557	0.3429
989.5	0.052
998.442	0
1007.38	0.1631
1016.33	0.5099
1025.27	0.614
1034.21	0.663
1043.16	0.63
1052.1	0.71
1061.04	0.744
1069.98	0.76
1078.93	0.774
1087.87	0.774
1096.81	0.786
1105.75	0.784
1114.7	0.796
1123.64	0.796
1132.58	0.769
1141.52	0.777
1150.47	0.793
1159.41	0.779
1168.35	0.784
1177.29	0.814
1186.24	0.829
1195.18	0.857
1204.12	0.871
1213.06	0.857
1222.01	0.803
1230.95	0.786
1239.89	0.819
1248.83	0.779
1257.78	0.769
1266.72	0.765
1275.66	0.763
1284.6	0.76
1293.55	0.755
1302.49	0.725
1311.43	0.692
1320.37	0.755
1329.32	0.782
1338.26	0.824
1347.2	0.833
1356.14	0.798
1365.09	0.6179
1374.03	0.7438
1382.97	0.821
1391.91	0.805
1400.86	0.7359
1409.8	0.536
1418.74	0.645
1427.69	0.756
1436.63	0.744
1445.57	0.6509
1454.51	0.401
1463.46	0.7289
1472.4	0.829
1481.34	0.85
1490.28	0.854
1499.23	0.862
1508.17	0.88
1517.11	0.883
1526.05	0.873
1535	0.859
1543.94	0.857
1552.88	0.864
1561.82	0.859
1570.77	0.836
1579.71	0.802
1588.65	0.762
1597.59	0.5389
1606.54	0.5723
1615.48	0.762
1624.42	0.6819
1633.36	0.3479
1642.31	0.475
1651.25	0.524
1660.19	0.789
1669.13	0.822
1678.08	0.814
1687.02	0.796
1695.96	0.75
1704.9	0.828
1713.85	0.838
1722.79	0.826
1731.73	0.821
1740.67	0.854
1749.62	0.868
1758.56	0.869
1767.5	0.873
1776.44	0.864
1785.39	0.829
1794.33	0.758
1803.27	0.626
1812.21	0.7501
1821.16	0.802
1830.1	0.781
1839.04	0.809
1847.99	0.829
1856.93	0.854
1865.87	0.888
1874.81	0.894
1883.76	0.897
1892.7	0.892
1901.64	0.892
1910.58	0.899
1919.53	0.904
1928.47	0.904
1937.41	0.899
1946.35	0.895
1955.3	0.901
1964.24	0.899
1973.18	0.895
1982.12	0.892
1991.07	0.899
2000.01	0.904
2008.95	0.906
2017.89	0.909
2026.84	0.914
2035.78	0.9071
2044.72	0.913
2053.66	0.913
2062.61	0.915
2071.55	0.913
2080.49	0.911
2089.43	0.911
2098.38	0.911
2107.32	0.913
2116.26	0.9081
2125.2	0.911
2134.15	0.9081
2143.09	0.9109
2152.03	0.913
2160.97	0.913
2169.92	0.914
2178.86	0.913
2187.8	0.909
2196.74	0.909
2205.69	0.909
2214.63	0.906
2223.57	0.902
2232.52	0.904
2241.46	0.9042
2250.4	0.904
2259.34	0.904
2268.29	0.904
2277.23	0.9032
2286.17	0.902
2295.11	0.904
2304.06	0.9087
2313	0.907
2321.94	0.9128
2330.88	0.9122
2339.83	0.909
2348.77	0.907
2357.71	0.9108
2366.65	0.907
2375.6	0.9042
2384.54	0.9028
2393.48	0.8952
2402.42	0.892
2411.37	0.892
2420.31	0.8932
2429.25	0.8903
2438.19	0.89
2447.14	0.892
2456.08	0.8933
2465.02	0.892
2473.96	0.8907
2482.91	0.892
2491.85	0.892
2500.79	0.892
2509.73	0.89
2518.68	0.888
2527.62	0.8877
2536.56	0.883
2545.5	0.883
2554.45	0.8847
2563.39	0.883
2572.33	0.8847
2581.27	0.885
2590.22	0.8833
2599.16	0.883
2608.1	0.887
2617.05	0.883
2625.99	0.881
2634.93	0.883
2643.87	0.885
2652.82	0.883
2661.76	0.88
2670.7	0.878
2679.64	0.88
2688.59	0.878
2697.53	0.8752
2706.47	0.8687
2715.41	0.8612
2724.36	0.8646
2733.3	0.869
2742.24	0.871
2751.18	0.869
2760.13	0.869
2769.07	0.8664
2778.01	0.862
2786.95	0.859
2795.9	0.8547
2804.84	0.8337
2813.78	0.8096
2822.72	0.7705
2831.67	0.7443
2840.61	0.696
2849.55	0.6499
2858.49	0.5168
2867.44	0.4024
2876.38	0.4074
2885.32	0.472
2894.26	0.543
2903.21	0.493
2912.15	0.4923
2921.09	0.4275
2930.03	0.3299
2938.98	0.4519
2947.92	0.4511
2956.86	0.2453
2965.8	0.088
2974.75	0.0943
2983.69	0.1931
2992.63	0.347
3001.58	0.3176
3010.52	0.3376
3019.46	0.4749
3028.4	0.4837
3037.35	0.428
3046.29	0.5453
3055.23	0.6271
3064.17	0.6238
3073.12	0.5501
3082.06	0.387
3091	0.36
3099.94	0.6024
3108.89	0.8035
3117.83	0.8429
3126.77	0.8578
3135.71	0.8616
3144.66	0.8674
3153.6	0.871
3162.54	0.8716
3171.48	0.873
3180.43	0.873
3189.37	0.875
3198.31	0.875
3207.25	0.88
3216.2	0.88
3225.14	0.8853
3234.08	0.89
3243.02	0.8895
3251.97	0.8893
3260.91	0.89
3269.85	0.892
3278.79	0.8917
3287.74	0.892
3296.68	0.8924
3305.62	0.892
3314.56	0.8917
3323.51	0.894
3332.45	0.89
3341.39	0.8895
3350.33	0.888
3359.28	0.8876
3368.22	0.888
3377.16	0.888
3386.1	0.888
3395.05	0.8892
3403.99	0.8918
3412.93	0.89
3421.88	0.8898
3430.82	0.8912
3439.76	0.89
3448.7	0.892
3457.65	0.888
3466.59	0.892
3475.53	0.892
3484.47	0.892
3493.42	0.894
3502.36	0.8933
3511.3	0.8922
3520.24	0.8962
3529.19	0.895
3538.13	0.8962
3547.07	0.894
3556.01	0.8946
3564.96	0.9009
3573.9	0.9042
3582.84	0.9106
3591.78	0.9014
3600.73	0.8939
3609.67	0.8961
3618.61	0.9012
3627.55	0.907
3636.5	0.911
3645.44	0.913
3654.38	0.913
3663.32	0.9162
3672.27	0.914
3681.21	0.9126
3690.15	0.9133
3699.09	0.92
3708.04	0.914
3716.98	0.914
3725.92	0.918
3734.86	0.916
3743.81	0.92
3752.75	0.913
3761.69	0.913
3770.63	0.913
3779.58	0.911
3788.52	0.913
