Infrared Spectrum: BUTANEDIOIC ACID, DI-(2-METHYLPROPYL) ESTER
Formula: C12 H22 O4
CAS: 925-06-4
State: SOLUTION (10% CCl4 FOR 2.7-7.5, 10% CS2 FOR 7.5-26 MICRON)
Class: COBLENTZ III
Instrument: DOW KBr FOREPRISM-GRATING
Instrument parameters: BLAZED AT 3.5, 12.0, 20.0 MICRON AND CHANGED AT 5.0, 7.5, 14.9 MICRON
Sampling: TRANSMISSION
Path length: 0.011 CM, 0.011 CM
Resolution: 2
Origin: DOW CHEMICAL COMPANY
1/CM	TRANSMITTANCE
394.03	0.869
402.559	0.868
411.088	0.865
419.616	0.863
428.145	0.86
436.674	0.859
445.203	0.892
453.731	0.914
462.26	0.916
470.789	0.928
479.318	0.928
487.847	0.928
496.375	0.925
504.904	0.925
513.433	0.922
521.962	0.913
530.49	0.902
539.019	0.892
547.548	0.876
556.077	0.857
564.606	0.859
573.134	0.876
581.663	0.894
590.192	0.905
598.721	0.916
607.249	0.925
615.778	0.933
624.307	0.933
632.836	0.925
641.365	0.912
649.893	0.912
658.422	0.925
666.951	0.953
675.48	0.952
684.008	0.96
692.537	0.97
701.066	0.973
709.595	0.977
718.124	0.98
726.652	0.98
735.181	0.98
743.71	0.981
752.239	0.981
760.767	0.981
769.296	0.98
777.825	0.978
786.354	0.976
794.883	0.92
803.411	0.86
811.94	0.901
820.469	0.809
828.998	0.828
837.526	0.825
846.055	0.877
854.584	0.888
863.113	0.875
871.642	0.855
880.17	0.799
888.699	0.776
897.228	0.808
905.757	0.73
914.286	0.686
922.814	0.702
931.343	0.696
939.872	0.692
948.401	0.628
956.929	0.73
965.458	0.676
973.987	0.672
982.516	0.688
991.045	0.454
999.573	0.083
1008.1	0.276
1016.63	0.392
1025.16	0.4
1033.69	0.595
1042.22	0.751
1050.75	0.765
1059.27	0.691
1067.8	0.698
1076.33	0.823
1084.86	0.839
1093.39	0.815
1101.92	0.743
1110.45	0.708
1118.98	0.662
1127.5	0.515
1136.03	0.313
1144.56	0.029
1153.09	0
1161.62	0.002
1170.15	0.045
1178.68	0.101
1187.21	0.114
1195.74	0.107
1204.26	0.082
1212.79	0.082
1221.32	0.172
1229.85	0.203
1238.38	0.208
1246.91	0.223
1255.44	0.204
1263.97	0.211
1272.49	0.28
1281.02	0.325
1289.55	0.381
1298.08	0.432
1306.61	0.436
1315.14	0.333
1323.67	0.453
1332.2	0.5
1340.72	0.425
1349.25	0.327
1357.78	0.202
1366.31	0.336
1374.84	0.176
1383.37	0.099
1391.9	0.401
1400.43	0.291
1408.95	0.482
1417.48	0.359
1426.01	0.436
1434.54	0.527
1443.07	0.635
1451.6	0.605
1460.13	0.441
1468.66	0.289
1477.18	0.24
1485.71	0.784
1494.24	0.856
1502.77	0.89
1511.3	0.913
1519.83	0.932
1528.36	0.944
1536.89	0.957
1545.42	0.965
1553.94	0.961
1562.47	0.956
1571	0.954
1579.53	0.956
1588.06	0.953
1596.59	0.946
1605.12	0.941
1613.65	0.934
1622.17	0.926
1630.7	0.916
1639.23	0.904
1647.76	0.893
1656.29	0.88
1664.82	0.863
1673.35	0.845
1681.88	0.807
1690.4	0.708
1698.93	0.618
1707.46	0.521
1715.99	0.2879
1724.52	0.003
1733.05	0.002
1741.58	0.002
1750.11	0.122
1758.63	0.4141
1767.16	0.644
1775.69	0.768
1784.22	0.821
1792.75	0.852
1801.28	0.882
1809.81	0.897
1818.34	0.916
1826.86	0.932
1835.39	0.941
1843.92	0.949
1852.45	0.958
1860.98	0.965
1869.51	0.964
1878.04	0.965
1886.57	0.965
1895.1	0.966
1903.62	0.968
1912.15	0.973
1920.68	0.974
1929.21	0.974
1937.74	0.974
1946.27	0.974
1954.8	0.976
1963.33	0.976
1971.85	0.972
1980.38	0.97
1988.91	0.968
1997.44	0.969
2005.97	0.97
2014.5	0.9686
2023.03	0.968
2031.56	0.966
2040.08	0.9667
2048.61	0.965
2057.14	0.9653
2065.67	0.966
2074.2	0.966
2082.73	0.968
2091.26	0.969
2099.79	0.968
2108.31	0.966
2116.84	0.9681
2125.37	0.97
2133.9	0.97
2142.43	0.97
2150.96	0.974
2159.49	0.976
2168.02	0.9779
2176.54	0.978
2185.07	0.978
2193.6	0.978
2202.13	0.978
2210.66	0.9773
2219.19	0.977
2227.72	0.9734
2236.25	0.9736
2244.77	0.974
2253.3	0.9735
2261.83	0.972
2270.36	0.97
2278.89	0.968
2287.42	0.966
2295.95	0.962
2304.48	0.962
2313.01	0.962
2321.53	0.962
2330.06	0.9595
2338.59	0.9584
2347.12	0.958
2355.65	0.958
2364.18	0.96
2372.71	0.96
2381.24	0.957
2389.76	0.958
2398.29	0.962
2406.82	0.9679
2415.35	0.9691
2423.88	0.969
2432.41	0.969
2440.94	0.9717
2449.47	0.973
2457.99	0.973
2466.52	0.973
2475.05	0.972
2483.58	0.9706
2492.11	0.97
2500.64	0.972
2509.17	0.969
2517.7	0.969
2526.22	0.968
2534.75	0.969
2543.28	0.9685
2551.81	0.966
2560.34	0.965
2568.87	0.965
2577.4	0.9577
2585.93	0.9554
2594.45	0.9578
2602.98	0.962
2611.51	0.961
2620.04	0.958
2628.57	0.956
2637.1	0.9542
2645.63	0.957
2654.16	0.956
2662.69	0.954
2671.21	0.954
2679.74	0.957
2688.27	0.96
2696.8	0.957
2705.33	0.954
2713.86	0.9427
2722.39	0.9187
2730.92	0.9123
2739.44	0.9287
2747.97	0.936
2756.5	0.936
2765.03	0.937
2773.56	0.938
2782.09	0.9317
2790.62	0.9229
2799.15	0.9185
2807.67	0.9036
2816.2	0.8797
2824.73	0.8726
2833.26	0.8591
2841.79	0.851
2850.32	0.8357
2858.85	0.7992
2867.38	0.7121
2875.9	0.3652
2884.43	0.2356
2892.96	0.3715
2901.49	0.3516
2910.02	0.3748
2918.55	0.381
2927.08	0.3105
2935.61	0.186
2944.13	0.179
2952.66	0.1441
2961.19	0.0303
2969.72	0.03
2978.25	0.0458
2986.78	0.1325
2995.31	0.4533
3003.84	0.674
3012.37	0.8251
3020.89	0.8773
3029.42	0.9149
3037.95	0.9336
3046.48	0.9496
3055.01	0.9565
3063.54	0.963
3072.07	0.966
3080.6	0.9694
3089.12	0.9734
3097.65	0.976
3106.18	0.9773
3114.71	0.978
3123.24	0.977
3131.77	0.976
3140.3	0.9738
3148.83	0.972
3157.35	0.97
3165.88	0.969
3174.41	0.969
3182.94	0.97
3191.47	0.973
3200	0.976
3208.53	0.98
3217.06	0.9839
3225.58	0.9878
3234.11	0.9917
3242.64	0.992
3251.17	0.992
3259.7	0.992
3268.23	0.992
3276.76	0.992
3285.29	0.993
3293.81	0.993
3302.34	0.993
3310.87	0.992
3319.4	0.99
3327.93	0.9895
3336.46	0.989
3344.99	0.989
3353.52	0.9886
3362.05	0.9872
3370.57	0.986
3379.1	0.985
3387.63	0.985
3396.16	0.985
3404.69	0.985
3413.22	0.982
3421.75	0.9778
3430.28	0.9716
3438.8	0.959
3447.33	0.9288
3455.86	0.925
3464.39	0.932
3472.92	0.9568
3481.45	0.9689
3489.98	0.9739
3498.51	0.976
3507.03	0.977
3515.56	0.977
3524.09	0.9744
3532.62	0.973
3541.15	0.972
3549.68	0.97
3558.21	0.972
3566.74	0.972
3575.26	0.972
3583.79	0.9684
3592.32	0.9655
3600.85	0.963
3609.38	0.962
3617.91	0.962
3626.44	0.962
3634.97	0.96
3643.49	0.96
3652.02	0.958
3660.55	0.958
3669.08	0.958
3677.61	0.957
3686.14	0.956
3694.67	0.957
3703.2	0.957
3711.72	0.957
3720.25	0.957
3728.78	0.956
3737.31	0.954
3745.84	0.953
3754.37	0.953
3762.9	0.953
3771.43	0.952
3779.96	0.95
3788.48	0.9482
3797.01	0.945
