Infrared Spectrum: 3-Nonanone
Formula: C 9 H 18 O
CAS: 925-78-0
State: gas
Instrument: HP-GC/MS/IRD
Origin: NIST Mass Spectrometry Data Center
1/CM	ABSORBANCE
550	0.0003197
562	6.67e-05
574	0.0001886
586	0.0001173
598	4.6e-05
610	0.0001081
622	0.0001633
634	0.0001449
646	3.22e-05
658	0.0001219
670	5.98e-05
682	7.13e-05
694	0.0001656
706	0.0002691
718	0.0004393
730	0.0005359
742	0.0004232
754	0.0004416
766	0.0003128
778	0.0003519
790	0.000299
802	0.0004347
814	0.0004554
826	0.0003749
838	0.0003979
850	0.0004554
862	0.0004738
874	0.0004531
886	0.0004807
898	0.0005267
910	0.0005037
922	0.0005957
934	0.0009085
946	0.0014444
958	0.0015594
970	0.0013501
982	0.0011132
994	0.0009844
1006	0.0009453
1018	0.0011362
1030	0.001403
1042	0.0015341
1054	0.0014191
1066	0.001219
1078	0.0011983
1090	0.0016744
1102	0.0025898
1114	0.0028773
1126	0.0028313
1138	0.002691
1150	0.002645
1162	0.0023644
1174	0.0018078
1186	0.0016422
1198	0.0016951
1210	0.0014697
1222	0.0011385
1234	0.0010051
1246	0.0010258
1258	0.0011385
1270	0.0012489
1282	0.0012673
1294	0.0012742
1306	0.0015088
1318	0.0019573
1330	0.002622
1342	0.0034546
1354	0.0038318
1366	0.0032499
1378	0.0026473
1390	0.0021482
1402	0.0018469
1414	0.0021873
1426	0.0024817
1438	0.0026174
1450	0.0032453
1462	0.0039376
1474	0.0029095
1486	0.0014789
1498	0.0008441
1510	0.0005704
1522	0.0004232
1534	0.000368
1546	0.0002921
1558	0.0002461
1570	0.0002208
1582	0.0002553
1594	0.0002093
1606	0.0002346
1618	0.0002783
1630	0.0002898
1642	0.0003427
1654	0.0004439
1666	0.0006532
1678	0.001127
1690	0.0021068
1702	0.0044022
1714	0.0091517
1726	0.0136022
1738	0.0099613
1750	0.0042021
1762	0.0017296
1774	0.0008441
1786	0.0004968
1798	0.0003243
1810	0.0002277
1822	0.000161
1834	0.0001334
1846	0.0001403
1858	0.0001012
1870	0.0001081
1882	6.21e-05
1894	5.75e-05
1906	7.82e-05
1918	6.21e-05
1930	6.44e-05
1942	4.14e-05
1954	7.59e-05
1966	4.6e-05
1978	5.29e-05
1990	4.37e-05
2002	2.99e-05
2014	4.37e-05
2026	6.21e-05
2038	5.98e-05
2050	5.29e-05
2062	2.99e-05
2074	5.52e-05
2086	3.91e-05
2098	3.91e-05
2110	4.37e-05
2122	2.99e-05
2134	4.83e-05
2146	5.06e-05
2158	4.6e-05
2170	3.45e-05
2182	4.83e-05
2194	2.3e-05
2206	5.06e-05
2218	2.53e-05
2230	1.84e-05
2242	1.84e-05
2254	2.76e-05
2266	1.84e-05
2278	2.3e-05
2290	3.22e-05
2302	5.29e-05
2314	3.68e-05
2326	6.44e-05
2338	8.97e-05
2350	5.75e-05
2362	5.06e-05
2374	5.06e-05
2386	2.99e-05
2398	3.91e-05
2410	5.98e-05
2422	2.07e-05
2434	1.61e-05
2446	2.53e-05
2458	2.07e-05
2470	3.68e-05
2482	2.3e-05
2494	2.3e-05
2506	1.38e-05
2518	3.22e-05
2530	2.53e-05
2542	1.84e-05
2554	4.83e-05
2566	5.29e-05
2578	4.83e-05
2590	7.59e-05
2602	5.06e-05
2614	6.67e-05
2626	8.28e-05
2638	0.0001104
2650	0.0001472
2662	0.0001955
2674	0.0002277
2686	0.000207
2698	0.0002507
2710	0.0002461
2722	0.0002691
2734	0.0003427
2746	0.000391
2758	0.0004301
2770	0.0004554
2782	0.0005911
2794	0.0007314
2806	0.0010419
2818	0.0013869
2830	0.0019228
2842	0.0029992
2854	0.0056028
2866	0.0085859
2878	0.0095611
2890	0.0098233
2902	0.0109112
2914	0.0144302
2926	0.0199042
2938	0.023
2950	0.0206563
2962	0.0179308
2974	0.0154606
2986	0.00966
2998	0.0053084
3010	0.0030268
3022	0.0019619
3034	0.0013432
3046	0.0009568
3058	0.0007314
3070	0.000598
3082	0.0005106
3094	0.0004439
3106	0.0004025
3118	0.0003427
3130	0.0003174
3142	0.0002208
3154	0.0002346
3166	0.0002346
3178	0.000184
3190	0.0001311
3202	0.0001311
3214	7.36e-05
3226	7.59e-05
3238	5.29e-05
3250	5.98e-05
3262	2.53e-05
3274	8.74e-05
3286	5.75e-05
3298	1.38e-05
3310	2.07e-05
3322	1.38e-05
3334	9.2e-05
3346	5.75e-05
3358	7.13e-05
3370	4.83e-05
3382	6.21e-05
3394	9.66e-05
3406	0.0001702
3418	0.0002093
3430	0.0002461
3442	0.0002898
3454	0.0001863
3466	0.0001334
3478	0.000138
3490	8.28e-05
3502	5.52e-05
3514	6.9e-06
3526	7.36e-05
3538	2.76e-05
3550	5.29e-05
3562	6.44e-05
3574	2.53e-05
3586	6.44e-05
3598	5.52e-05
3610	2.07e-05
3622	2.53e-05
3634	8.74e-05
3646	8.28e-05
3658	0.0001219
3670	9.66e-05
3682	7.82e-05
3694	4.6e-05
3706	3.68e-05
3718	0.0001081
3730	7.82e-05
3742	8.97e-05
3754	7.82e-05
3766	5.52e-05
3778	8.97e-05
3790	0.0001081
3802	5.75e-05
3814	3.45e-05
3826	0.0001449
3838	0.0001426
