Infrared Spectrum: LEVULINIC ACID, ETHYL ESTER, DIETHYL ACETAL
Formula: C11 H22 O4
CAS: 92557-39-6
State: SOLUTION (10% CCl4 FOR 3800-1340, 10% CS2 FOR 1340-400 CM^-^1)
Class: COBLENTZ III
Instrument: DOW KBr FOREPRISM-GRATING
Instrument parameters: BLAZED AT 3.5, 12.0, 20.0 MICRON AND CHANGED AT 5.0, 7.5, 14.9 MICRON
Sampling: TRANSMISSION
Path length: 0.011 CM, 0.011 CM
Resolution: 2
Origin: DOW CHEMICAL COMPANY
1/CM	TRANSMITTANCE
380	0.8192
389	0.8228
398	0.8257
407	0.8292
416	0.8315
425	0.8327
434	0.8328
443	0.8315
452	0.8289
461	0.8312
470	0.8377
479	0.8406
488	0.8397
497	0.8421
506	0.8493
515	0.8548
524	0.856
533	0.8556
542	0.8502
551	0.833
560	0.81
569	0.8313
578	0.8473
587	0.8471
596	0.8368
605	0.8021
614	0.8108
623	0.8889
632	0.8954
641	0.8934
650	0.8821
659	0.909
668	0.9078
677	0.9139
686	0.9121
695	0.9056
704	0.9025
713	0.9003
722	0.897
731	0.8923
740	0.8843
749	0.863
758	0.8314
767	0.8051
776	0.7982
785	0.7444
794	0.7584
803	0.7592
812	0.7512
821	0.7575
830	0.7561
839	0.6778
848	0.5086
857	0.4009
866	0.5289
875	0.6918
884	0.755
893	0.76
902	0.7326
911	0.7205
920	0.6391
929	0.5251
938	0.3416
947	0.2876
956	0.4923
965	0.5355
974	0.6355
983	0.5697
992	0.6981
1001	0.6772
1010	0.5962
1019	0.3734
1028	0.2208
1037	0.1563
1046	0.0911
1055	0.0197
1064	0.0391
1073	0.0743
1082	0.1456
1091	0.0727
1100	0.1166
1109	0.0837
1118	0.0886
1127	0.0513
1136	0.034
1145	0.088
1154	0.0807
1163	0.0611
1172	0.0683
1181	0.0354
1190	0.1157
1199	0.1592
1208	0.1366
1217	0.1244
1226	0.1365
1235	0.1452
1244	0.1574
1253	0.1672
1262	0.1922
1271	0.1868
1280	0.1454
1289	0.1211
1298	0.1342
1307	0.1649
1316	0.2903
1325	0.4579
1334	0.4982
1343	0.5027
1352	0.4358
1361	0.4282
1370	0.2306
1379	0.1013
1388	0.2834
1397	0.3391
1406	0.5109
1415	0.5232
1424	0.4562
1433	0.5329
1442	0.3982
1451	0.4175
1460	0.3991
1469	0.4667
1478	0.5521
1487	0.6812
1496	0.7742
1505	0.8011
1514	0.8132
1523	0.8256
1532	0.8475
1541	0.8606
1550	0.8616
1559	0.8543
1568	0.8405
1577	0.8381
1586	0.8362
1595	0.83
1604	0.8218
1613	0.8164
1622	0.8105
1631	0.8051
1640	0.796
1649	0.7878
1658	0.7798
1667	0.7711
1676	0.7507
1685	0.6893
1694	0.6206
1703	0.5472
1712	0.3728
1721	0.0876
1730	0.0147
1739	0.0092
1748	0.0662
1757	0.4415
1766	0.6186
1775	0.6958
1784	0.7355
1793	0.7601
1802	0.7819
1811	0.803
1820	0.815
1829	0.8265
1838	0.8342
1847	0.8387
1856	0.8424
1865	0.8432
1874	0.8391
1883	0.8337
1892	0.8343
1901	0.8355
1910	0.8378
1919	0.8409
1928	0.8421
1937	0.8418
1946	0.8407
1955	0.8403
1964	0.8406
1973	0.841
1982	0.8413
1991	0.8438
2000	0.8649
2009	0.8839
2018	0.8866
2027	0.8875
2036	0.8873
2045	0.8873
2054	0.8882
2063	0.8883
2072	0.8885
2081	0.8889
2090	0.8899
2099	0.8906
2108	0.8912
2117	0.8915
2126	0.8917
2135	0.8918
2144	0.8921
2153	0.8923
2162	0.8925
2171	0.8928
2180	0.8927
2189	0.8924
2198	0.8921
2207	0.8918
2216	0.8918
2225	0.8918
2234	0.8918
2243	0.8918
2252	0.8918
2261	0.8918
2270	0.8916
2279	0.8912
2288	0.891
2297	0.8906
2306	0.8903
2315	0.89
2324	0.8897
2333	0.8893
2342	0.8892
2351	0.8891
2360	0.8891
2369	0.889
2378	0.889
2387	0.8892
2396	0.8895
2405	0.8897
2414	0.89
2423	0.8903
2432	0.8905
2441	0.8908
2450	0.8911
2459	0.8913
2468	0.8916
2477	0.8918
2486	0.8916
2495	0.8912
2504	0.8908
2513	0.8904
2522	0.8902
2531	0.89
2540	0.8898
2549	0.889
2558	0.8882
2567	0.8868
2576	0.8846
2585	0.8815
2594	0.8771
2603	0.8708
2612	0.8699
2621	0.8752
2630	0.8771
2639	0.8756
2648	0.8745
2657	0.8737
2666	0.8735
2675	0.8731
2684	0.8717
2693	0.8628
2702	0.8528
2711	0.8375
2720	0.8188
2729	0.827
2738	0.8378
2747	0.8348
2756	0.8293
2765	0.8293
2774	0.8331
2783	0.832
2792	0.8237
2801	0.8033
2810	0.7751
2819	0.7714
2828	0.7451
2837	0.7122
2846	0.6715
2855	0.6008
2864	0.4453
2873	0.3395
2882	0.3004
2891	0.3163
2900	0.329
2909	0.33
2918	0.3006
2927	0.2334
2936	0.2664
2945	0.3339
2954	0.3396
2963	0.1943
2972	0.0457
2981	0.0765
2990	0.1484
2999	0.2885
3008	0.5268
3017	0.6915
3026	0.7761
3035	0.8017
3044	0.8233
3053	0.8356
3062	0.8407
3071	0.8447
3080	0.8478
3089	0.8506
3098	0.853
3107	0.8549
3116	0.8568
3125	0.8583
3134	0.8588
3143	0.8592
3152	0.8594
3161	0.8596
3170	0.8594
3179	0.8588
3188	0.8583
3197	0.858
3206	0.8582
3215	0.8584
3224	0.8591
3233	0.8603
3242	0.8621
3251	0.8632
3260	0.8638
3269	0.8644
3278	0.8643
3287	0.8639
3296	0.8637
3305	0.8633
3314	0.8631
3323	0.8628
3332	0.8625
3341	0.8623
3350	0.8615
3359	0.8604
3368	0.8594
3377	0.858
3386	0.8565
3395	0.8545
3404	0.8517
3413	0.8466
3422	0.8383
3431	0.8295
3440	0.8218
3449	0.8172
3458	0.8192
3467	0.824
3476	0.8282
3485	0.8278
3494	0.8221
3503	0.8175
3512	0.8161
3521	0.8161
3530	0.8164
3539	0.8165
3548	0.818
3557	0.8213
3566	0.8287
3575	0.8358
3584	0.8548
3593	0.8603
3602	0.8621
3611	0.8623
3620	0.8502
3629	0.8495
3638	0.8588
3647	0.879
3656	0.8833
3665	0.8851
3674	0.886
3683	0.8853
3692	0.8842
3701	0.8855
3710	0.8888
3719	0.8892
3728	0.889
3737	0.8889
3746	0.889
3755	0.8892
3764	0.8889
3773	0.8884
3782	0.8878
3791	0.8871
