Infrared Spectrum: 3-Benzofurancarboxamide, 2,3-dihydro-3-phenyl-,
Formula: C15 H13 N O2
CAS: 92552-62-0
State: SOLUTION (7% CHCl3 FOR 2-15 MICRON) VS SOLVENT
Class: COBLENTZ
Instrument: PERKIN-ELMER 21 (GRATING)
Instrument parameters: FILTER AT ABOUT 10 MICRONS
Path length: 0.01 CM
Resolution: 2
Origin: ABBOTT LABORATORIES
1/CM	TRANSMITTANCE
665	0.7125
674	0.8154
683	0.7882
692	0.518
701	0.4838
710	0.7728
719	0.8419
728	0.8453
737	0.8503
746	0.8585
755	0.8831
764	0.9263
773	0.9242
782	0.9197
791	0.9314
800	0.9063
809	0.8663
818	0.7949
827	0.5627
836	0.7215
845	0.8003
854	0.8261
863	0.824
872	0.8492
881	0.8562
890	0.8512
899	0.8407
908	0.8337
917	0.8309
926	0.7695
935	0.6522
944	0.5751
953	0.6718
962	0.6864
971	0.6734
980	0.5661
989	0.5187
998	0.6555
1007	0.7524
1016	0.6153
1025	0.6891
1034	0.8111
1043	0.8481
1052	0.8847
1061	0.8437
1070	0.8208
1079	0.7819
1088	0.8197
1097	0.644
1106	0.7822
1115	0.8498
1124	0.8624
1133	0.852
1142	0.7406
1151	0.7945
1160	0.856
1169	0.8551
1178	0.8275
1187	0.7764
1196	0.6832
1205	0.5916
1214	0.5014
1223	0.4125
1232	0.3872
1241	0.5331
1250	0.6782
1259	0.7457
1268	0.6591
1277	0.7026
1286	0.7794
1295	0.7588
1304	0.6654
1313	0.6107
1322	0.6
1331	0.511
1340	0.4708
1349	0.4773
1358	0.5216
1367	0.645
1376	0.7193
1385	0.7908
1394	0.8256
1403	0.8432
1412	0.8666
1421	0.8606
1430	0.7982
1439	0.6917
1448	0.555
1457	0.4536
1466	0.4345
1475	0.1308
1484	0.4489
1493	0.6815
1502	0.8236
1511	0.8818
1520	0.8894
1529	0.8803
1538	0.8652
1547	0.8443
1556	0.7864
1565	0.642
1574	0.2635
1583	0.2652
1592	0.3321
1601	0.4767
1610	0.6207
1619	0.7761
1628	0.7871
1637	0.7602
1646	0.7042
1655	0.5062
1664	0.3263
1673	0.1131
1682	0.0368
1691	0.0779
1700	0.3681
1709	0.6673
1718	0.8035
1727	0.836
1736	0.8631
1745	0.8784
1754	0.8825
1763	0.8853
1772	0.8906
1781	0.8967
1790	0.8997
1799	0.8967
1808	0.9044
1817	0.9166
1826	0.9277
1835	0.9316
1844	0.9296
1853	0.9224
1862	0.9162
1871	0.9106
1880	0.9064
1889	0.9045
1898	0.9161
1907	0.9224
1916	0.9162
1925	0.9107
1934	0.9084
1943	0.9074
1952	0.9149
1961	0.9246
1970	0.93
1979	0.9325
1988	0.937
1997	0.9408
2006	0.9396
2015	0.9389
2024	0.9388
2033	0.9387
2042	0.9386
2051	0.9385
2060	0.9388
2069	0.9392
2078	0.9405
2087	0.9422
2096	0.9435
2105	0.9443
2114	0.9452
2123	0.9454
2132	0.9456
2141	0.9458
2150	0.9457
2159	0.9455
2168	0.9446
2177	0.9434
2186	0.9426
2195	0.9424
2204	0.9422
2213	0.942
2222	0.942
2231	0.9421
2240	0.9423
2249	0.9415
2258	0.9404
2267	0.9383
2276	0.935
2285	0.9323
2294	0.9318
2303	0.9328
2312	0.9345
2321	0.937
2330	0.9409
2339	0.9451
2348	0.9465
2357	0.9462
2366	0.9455
2375	0.944
2384	0.9414
2393	0.9379
2402	0.932
2411	0.9272
2420	0.9259
2429	0.9257
2438	0.9256
2447	0.9262
2456	0.9278
2465	0.9297
2474	0.9318
2483	0.9334
2492	0.9349
2501	0.9358
2510	0.936
2519	0.9358
2528	0.9337
2537	0.9315
2546	0.9303
2555	0.9311
2564	0.9319
2573	0.9327
2582	0.9335
2591	0.9343
2600	0.9349
2609	0.9355
2618	0.9361
2627	0.9358
2636	0.9354
2645	0.9347
2654	0.9333
2663	0.9321
2672	0.9307
2681	0.93
2690	0.9294
2699	0.9289
2708	0.9283
2717	0.9266
2726	0.9247
2735	0.9231
2744	0.9219
2753	0.9207
2762	0.9199
2771	0.9209
2780	0.9218
2789	0.9232
2798	0.9257
2807	0.9264
2816	0.9248
2825	0.9213
2834	0.9164
2843	0.9104
2852	0.9034
2861	0.8933
2870	0.8785
2879	0.8689
2888	0.8676
2897	0.8663
2906	0.8591
2915	0.8482
2924	0.839
2933	0.8305
2942	0.8209
2951	0.8098
2960	0.8011
2969	0.7906
2978	0.7768
2987	0.733
2996	0.6704
3005	0.6545
3014	0.6555
3023	0.6675
3032	0.6816
3041	0.6956
3050	0.7111
3059	0.7261
3068	0.7345
3077	0.7447
3086	0.7587
3095	0.7766
3104	0.7814
3113	0.7807
3122	0.7725
3131	0.7607
3140	0.7491
3149	0.7375
3158	0.7261
3167	0.7203
3176	0.7198
3185	0.7204
3194	0.7253
3203	0.7351
3212	0.7447
3221	0.7544
3230	0.7639
3239	0.769
3248	0.7687
3257	0.7677
3266	0.7658
3275	0.7637
3284	0.7628
3293	0.7626
3302	0.7633
3311	0.7642
3320	0.763
3329	0.7611
3338	0.7591
3347	0.7561
3356	0.7282
3365	0.6965
3374	0.665
3383	0.6346
3392	0.6349
3401	0.6415
3410	0.7074
3419	0.7751
3428	0.8276
3437	0.8317
3446	0.8009
3455	0.7558
3464	0.711
3473	0.6664
3482	0.622
3491	0.5779
3500	0.5637
3509	0.5641
3518	0.5996
3527	0.6873
3536	0.7746
3545	0.8602
3554	0.8972
3563	0.9126
3572	0.9254
3581	0.9347
3590	0.9408
3599	0.9437
3608	0.9442
3617	0.9441
3626	0.9429
3635	0.9404
3644	0.9376
3653	0.9344
3662	0.9314
3671	0.9296
3680	0.9279
3689	0.9266
3698	0.9261
3707	0.9258
3716	0.926
3725	0.9263
3734	0.9266
3743	0.9269
3752	0.927
3761	0.927
3770	0.927
3779	0.9269
3788	0.9268
3797	0.9262
3806	0.9257
3815	0.9251
3824	0.9246
3833	0.924
3842	0.9235
3851	0.9229
3860	0.9224
3869	0.9218
3878	0.9213
3887	0.9208
3896	0.9204
3905	0.9199
3914	0.9195
3923	0.919
3932	0.9186
3941	0.9182
3950	0.9173
3959	0.9161
3968	0.915
3977	0.9138
3986	0.9128
3995	0.9123
