Infrared Spectrum: UREA, 1,3-BIS(p-CHLOROBENZYL)-
Formula: C15 H14 Cl2 N2 O
CAS: 92550-15-7
State: SOLID (0.7 mg / 500 mg KBr DISC)
Class: COBLENTZ III
Instrument: PERKIN-ELMER 221 (GRATING)
Instrument parameters: FILTER AT 980 CM ^-^1, GRATING FOR 4000-1428 CM^-^1, NaCl PRISM FOR 1428-650 CM^-^1
Sampling: TRANSMISSION
Resolution: 4
Origin: SOUTHERN RES. INSTITUTE
1/CM	TRANSMITTANCE
601.928	0.695
611.122	0.69
620.317	0.693
629.511	0.704
638.705	0.72
647.899	0.741
657.094	0.782
666.288	0.818
675.482	0.858
684.676	0.881
693.871	0.895
703.065	0.886
712.259	0.818
721.454	0.896
730.648	0.892
739.842	0.798
749.036	0.857
758.231	0.897
767.425	0.876
776.619	0.898
785.813	0.889
795.008	0.841
804.202	0.622
813.396	0.57
822.59	0.856
831.785	0.876
840.979	0.9
850.173	0.902
859.368	0.85
868.562	0.766
877.756	0.941
886.95	0.945
896.145	0.947
905.339	0.944
914.533	0.935
923.727	0.932
932.922	0.93
942.116	0.922
951.31	0.92
960.505	0.91
969.699	0.903
978.893	0.895
988.087	0.888
997.282	0.867
1006.48	0.579
1015.67	0.892
1024.86	0.891
1034.06	0.883
1043.25	0.846
1052.45	0.8
1061.64	0.778
1070.84	0.737
1080.03	0.678
1089.22	0.452
1098.42	0.775
1107.61	0.861
1116.81	0.885
1126	0.889
1135.2	0.889
1144.39	0.886
1153.58	0.883
1162.78	0.865
1171.97	0.855
1181.17	0.864
1190.36	0.858
1199.56	0.844
1208.75	0.803
1217.94	0.756
1227.14	0.681
1236.33	0.569
1245.53	0.615
1254.72	0.797
1263.92	0.835
1273.11	0.848
1282.3	0.844
1291.5	0.85
1300.69	0.858
1309.89	0.873
1319.08	0.877
1328.28	0.868
1337.47	0.86
1346.66	0.858
1355.86	0.858
1365.05	0.85
1374.25	0.845
1383.44	0.836
1392.64	0.812
1401.83	0.72
1411.02	0.865
1420.22	0.862
1429.41	0.854
1438.61	0.844
1447.8	0.814
1457	0.741
1466.19	0.584
1475.38	0.463
1484.58	0.697
1493.77	0.265
1502.97	0.728
1512.16	0.63
1521.36	0.664
1530.55	0.649
1539.74	0.605
1548.94	0.532
1558.13	0.378
1567.33	0.178
1576.52	0.219
1585.71	0.297
1594.91	0.4
1604.1	0.318
1613.3	0.147
1622.49	0.135
1631.69	0.327
1640.88	0.47
1650.07	0.628
1659.27	0.763
1668.46	0.84
1677.66	0.883
1686.85	0.91
1696.05	0.929
1705.24	0.939
1714.43	0.945
1723.63	0.947
1732.82	0.948
1742.02	0.949
1751.21	0.947
1760.41	0.945
1769.6	0.947
1778.79	0.946
1787.99	0.94
1797.18	0.947
1806.38	0.961
1815.57	0.963
1824.77	0.96
1833.96	0.959
1843.15	0.957
1852.35	0.957
1861.54	0.955
1870.74	0.951
1879.93	0.944
1889.13	0.939
1898.32	0.892
1907.51	0.935
1916.71	0.95
1925.9	0.95
1935.1	0.946
1944.29	0.944
1953.49	0.942
1962.68	0.941
1971.87	0.94
1981.07	0.938
1990.26	0.937
1999.46	0.935
2008.65	0.934
2017.85	0.932
2027.04	0.932
2036.23	0.931
2045.43	0.929
2054.62	0.929
2063.82	0.927
2073.01	0.926
2082.21	0.923
2091.4	0.921
2100.59	0.92
2109.79	0.918
2118.98	0.917
2128.18	0.916
2137.37	0.916
2146.57	0.915
2155.76	0.913
2164.95	0.912
2174.15	0.91
2183.34	0.91
2192.54	0.908
2201.73	0.907
2210.93	0.909
2220.12	0.91
2229.31	0.909
2238.51	0.907
2247.7	0.906
2256.9	0.904
2266.09	0.902
2275.29	0.901
2284.48	0.903
2293.67	0.903
2302.87	0.902
2312.06	0.902
2321.26	0.9
2330.45	0.899
2339.65	0.898
2348.84	0.897
2358.03	0.896
2367.23	0.895
2376.42	0.894
2385.62	0.893
2394.81	0.892
2404.01	0.892
2413.2	0.89
2422.39	0.889
2431.59	0.889
2440.78	0.888
2449.98	0.887
2459.17	0.886
2468.36	0.885
2477.56	0.883
2486.75	0.882
2495.95	0.88
2505.14	0.877
2514.34	0.876
2523.53	0.874
2532.72	0.874
2541.92	0.874
2551.11	0.873
2560.31	0.873
2569.5	0.872
2578.7	0.871
2587.89	0.87
2597.08	0.87
2606.28	0.87
2615.47	0.868
2624.67	0.867
2633.86	0.864
2643.06	0.863
2652.25	0.861
2661.44	0.86
2670.64	0.859
2679.83	0.859
2689.03	0.858
2698.22	0.858
2707.42	0.858
2716.61	0.858
2725.8	0.857
2735	0.855
2744.19	0.853
2753.39	0.85
2762.58	0.843
2771.78	0.836
2780.97	0.833
2790.16	0.834
2799.36	0.835
2808.55	0.835
2817.75	0.833
2826.94	0.828
2836.14	0.816
2845.33	0.808
2854.52	0.803
2863.72	0.78
2872.91	0.721
2882.11	0.664
2891.3	0.806
2900.5	0.803
2909.69	0.781
2918.88	0.749
2928.08	0.76
2937.27	0.8
2946.47	0.784
2955.66	0.778
2964.86	0.815
2974.05	0.816
2983.24	0.815
2992.44	0.814
3001.63	0.813
3010.83	0.812
3020.02	0.81
3029.22	0.81
3038.41	0.813
3047.6	0.816
3056.8	0.815
3065.99	0.814
3075.19	0.806
3084.38	0.794
3093.58	0.792
3102.77	0.791
3111.96	0.79
3121.16	0.79
3130.35	0.79
3139.55	0.79
3148.74	0.79
3157.94	0.79
3167.13	0.789
3176.32	0.787
3185.52	0.782
3194.71	0.777
3203.91	0.764
3213.1	0.749
3222.3	0.738
3231.49	0.72
3240.68	0.704
3249.88	0.687
3259.07	0.66
3268.27	0.63
3277.46	0.594
3286.66	0.556
3295.85	0.516
3305.04	0.449
3314.24	0.371
3323.43	0.249
3332.63	0.283
3341.82	0.384
3351.01	0.504
3360.21	0.657
3369.4	0.689
3378.6	0.729
3387.79	0.754
3396.99	0.756
3406.18	0.758
3415.37	0.758
3424.57	0.759
3433.76	0.759
3442.96	0.76
3452.15	0.76
3461.35	0.76
3470.54	0.76
3479.73	0.76
3488.93	0.761
3498.12	0.763
3507.32	0.766
3516.51	0.769
3525.71	0.773
3534.9	0.778
3544.09	0.781
3553.29	0.784
3562.48	0.788
3571.68	0.793
3580.87	0.798
3590.07	0.805
3599.26	0.808
3608.45	0.811
3617.65	0.812
3626.84	0.812
3636.04	0.813
3645.23	0.813
3654.43	0.813
3663.62	0.813
3672.81	0.813
3682.01	0.814
3691.2	0.815
3700.4	0.815
3709.59	0.815
3718.79	0.814
3727.98	0.812
3737.17	0.812
3746.37	0.812
3755.56	0.811
3764.76	0.81
3773.95	0.809
3783.15	0.809
3792.34	0.808
3801.53	0.807
3810.73	0.806
3819.92	0.804
3829.12	0.803
3838.31	0.801
3847.51	0.8
3856.7	0.8
3865.89	0.799
3875.09	0.799
3884.28	0.798
3893.48	0.797
3902.67	0.797
3911.87	0.797
3921.06	0.797
3930.25	0.797
3939.45	0.797
3948.64	0.797
3957.84	0.797
3967.03	0.798
3976.23	0.798
3985.42	0.799
3994.61	0.8
4003.81	0.803
