Infrared Spectrum: 2-(M-METHYLPHENOXY)-3-METHYL PYRAZINE
Formula: C12 H12 N2 O
CAS: 92576-03-9
State: SOLID (MINERAL OIL MULL)
Melting point: 67-68 C
Class: COBLENTZ
Instrument: Not specified, most likely a prism, grating, or hybrid spectrometer.
Sampling: TRANSMISSION
Resolution: 4
Origin: WYANDOTTE CHEMICALS CORP., WYANDOTTE, MICHIGAN, USA
MICROMETERS	TRANSMITTANCE
2.027	0.469
2.06675	0.472
2.10651	0.477
2.14626	0.48
2.18601	0.48
2.22577	0.477
2.26552	0.472
2.30527	0.482
2.34503	0.487
2.38478	0.49
2.42454	0.494
2.46429	0.497
2.50404	0.5
2.5438	0.504
2.58355	0.51
2.6233	0.517
2.66306	0.525
2.70281	0.529
2.74256	0.529
2.78232	0.529
2.82207	0.527
2.86182	0.524
2.90158	0.52
2.94133	0.515
2.98109	0.514
3.02084	0.515
3.06059	0.524
3.10035	0.525
3.1401	0.524
3.17985	0.515
3.21961	0.507
3.25936	0.474
3.29911	0.378
3.33887	0.296
3.37862	0.061
3.41837	0.053
3.45813	0.121
3.49788	0.147
3.53764	0.271
3.57739	0.65
3.61714	0.683
3.6569	0.684
3.69665	0.668
3.7364	0.683
3.77616	0.688
3.81591	0.694
3.85566	0.703
3.89542	0.708
3.93517	0.709
3.97492	0.713
4.01468	0.723
4.05443	0.729
4.09418	0.713
4.13394	0.713
4.17369	0.718
4.21345	0.729
4.2532	0.723
4.29295	0.683
4.33271	0.703
4.37246	0.728
4.41221	0.779
4.45197	0.772
4.49172	0.767
4.53147	0.777
4.57123	0.782
4.61098	0.784
4.65073	0.792
4.69049	0.784
4.73024	0.779
4.77	0.797
4.80975	0.814
4.8495	0.817
4.88926	0.817
4.92901	0.82
4.96876	0.819
5.00852	0.829
5.04827	0.832
5.08802	0.844
5.12778	0.847
5.16753	0.857
5.20728	0.834
5.24704	0.822
5.28679	0.797
5.32655	0.86
5.3663	0.839
5.40605	0.873
5.44581	0.865
5.48556	0.882
5.52531	0.882
5.56507	0.855
5.60482	0.862
5.64457	0.877
5.68433	0.895
5.72408	0.887
5.76383	0.897
5.80359	0.905
5.84334	0.895
5.88309	0.849
5.92285	0.89
5.9626	0.89
6.00236	0.9
6.04211	0.88
6.08186	0.918
6.12162	0.908
6.16137	0.691
6.20112	0.615
6.24088	0.633
6.28063	0.485
6.32038	0.61
6.36014	0.751
6.39989	0.767
6.43964	0.643
6.4794	0.311
6.51915	0.53
6.55891	0.633
6.59866	0.683
6.63841	0.645
6.67817	0.406
6.71792	0.26
6.75767	0.29
6.79743	0.202
6.83718	0.159
6.87693	0.165
6.91669	0.172
6.95644	0.203
6.99619	0.222
7.03595	0.232
7.0757	0.192
7.11545	0.172
7.15521	0.155
7.19496	0.121
7.23472	0.082
7.27447	0.126
7.31422	0.278
7.35398	0.442
7.39373	0.485
7.43348	0.597
7.47324	0.628
7.51299	0.482
7.55274	0.52
7.5925	0.621
7.63225	0.671
7.672	0.575
7.71176	0.404
7.75151	0.364
7.79127	0.111
7.83102	0.172
7.87077	0.394
7.91053	0.469
7.95028	0.341
7.99003	0.354
8.02979	0.22
8.06954	0.101
8.10929	0.232
8.14905	0.358
8.1888	0.507
8.22855	0.608
8.26831	0.665
8.30806	0.635
8.34782	0.716
8.38757	0.502
8.42732	0.222
8.46708	0.359
8.50683	0.306
8.54658	0.111
8.58634	0.059
8.62609	0.071
8.66584	0.132
8.7056	0.24
8.74535	0.318
8.7851	0.343
8.82486	0.396
8.86461	0.441
8.90436	0.504
8.94412	0.547
8.98387	0.578
9.02363	0.6
9.06338	0.631
9.10313	0.645
9.14289	0.635
9.18264	0.562
9.22239	0.495
9.26215	0.53
9.3019	0.608
9.34165	0.65
9.38141	0.666
9.42116	0.684
9.46091	0.693
9.50067	0.693
9.54042	0.689
9.58018	0.653
9.61993	0.64
9.65968	0.636
9.69944	0.646
9.73919	0.694
9.77894	0.728
9.8187	0.741
9.85845	0.744
9.8982	0.734
9.93796	0.729
9.97771	0.603
10.0175	0.55
10.0572	0.633
10.097	0.678
10.1367	0.694
10.1765	0.689
10.2162	0.611
10.256	0.475
10.2957	0.464
10.3355	0.565
10.3752	0.65
10.415	0.718
10.4548	0.741
10.4945	0.776
10.5343	0.796
10.574	0.802
10.6138	0.786
10.6535	0.752
10.6933	0.673
10.733	0.386
10.7728	0.242
10.8125	0.461
10.8523	0.595
10.892	0.681
10.9318	0.711
10.9715	0.713
11.0113	0.595
11.0511	0.429
11.0908	0.527
11.1306	0.694
11.1703	0.741
11.2101	0.749
11.2498	0.714
11.2896	0.613
11.3293	0.582
11.3691	0.57
11.4088	0.509
11.4486	0.543
11.4883	0.646
11.5281	0.688
11.5679	0.66
11.6076	0.66
11.6474	0.681
11.6871	0.64
11.7269	0.582
11.7666	0.495
11.8064	0.61
11.8461	0.747
11.8859	0.777
11.9256	0.805
11.9654	0.842
12.0051	0.86
12.0449	0.868
12.0846	0.88
12.1244	0.883
12.1642	0.882
12.2039	0.875
12.2437	0.864
12.2834	0.829
12.3232	0.752
12.3629	0.593
12.4027	0.373
12.4424	0.386
12.4822	0.525
12.5219	0.648
12.5617	0.724
12.6014	0.776
12.6412	0.807
12.681	0.827
12.7207	0.847
12.7605	0.852
12.8002	0.85
12.84	0.849
12.8797	0.855
12.9195	0.85
12.9592	0.837
12.999	0.792
13.0387	0.653
13.0785	0.441
13.1182	0.368
13.158	0.5
13.1977	0.65
13.2375	0.754
13.2773	0.796
13.317	0.812
13.3568	0.817
13.3965	0.796
13.4363	0.703
13.476	0.57
13.5158	0.467
13.5555	0.533
13.5953	0.65
13.635	0.718
13.6748	0.742
13.7145	0.764
13.7543	0.777
13.7941	0.786
13.8338	0.792
13.8736	0.796
13.9133	0.799
13.9531	0.82
13.9928	0.845
14.0326	0.859
14.0723	0.873
14.1121	0.885
14.1518	0.897
14.1916	0.903
14.2313	0.91
14.2711	0.915
14.3108	0.92
14.3506	0.918
14.3904	0.915
14.4301	0.903
14.4699	0.88
14.5096	0.792
14.5494	0.653
14.5891	0.469
14.6289	0.411
14.6686	0.494
14.7084	0.62
14.7481	0.719
14.7879	0.769
14.8276	0.786
14.8674	0.81
14.9072	0.819
14.9469	0.827
14.9867	0.82
15.0264	0.784
15.0662	0.746
15.1059	0.759
15.1457	0.8
15.1854	0.82
15.2252	0.819
15.2649	0.802
15.3047	0.791
15.3444	0.772
15.3842	0.771
15.4239	0.759
15.4637	0.744
15.5035	0.731
15.5432	0.726
15.583	0.708
15.6227	0.678
15.6625	0.648
15.7022	0.61
15.742	0.587
15.7817	0.59
15.8215	0.605
15.8612	0.615
15.901	0.616
15.9407	0.615
15.9805	0.611
