Infrared Spectrum: trans-2-Methyl-1,3-pentadiene
Formula: C 6 H 10
CAS: 926-54-5
State: gas
Instrument: HP-GC/MS/IRD
Origin: NIST Mass Spectrometry Data Center
1/CM	ABSORBANCE
550	0.0005038
562	0.0001474
574	8.69e-05
586	9.13e-05
598	6.71e-05
610	0.0001342
622	0.000121
634	0.000132
646	0.0001639
658	0.0001089
670	7.37e-05
682	0.0002101
694	0.0002464
706	0.000198
718	2.2e-06
730	0.0001309
742	0.0001661
754	6.93e-05
766	0.0001969
778	0.0002189
790	0.0005038
802	0.0008327
814	0.0010604
826	0.0009746
838	0.0009581
850	0.001606
862	0.0033396
874	0.0052173
886	0.008206
898	0.0053185
910	0.0035222
922	0.0027577
934	0.0042174
946	0.0061446
958	0.0081323
970	0.0059433
982	0.0043681
994	0.0025289
1006	0.0018073
1018	0.001364
1030	0.0009031
1042	0.0005049
1054	0.0002541
1066	0.0003058
1078	0.0002948
1090	0.0002541
1102	0.0002145
1114	0.0001595
1126	0.0001617
1138	0.0001936
1150	0.0001694
1162	0.0002068
1174	0.0001782
1186	0.0002596
1198	0.0002717
1210	0.0004675
1222	0.0006138
1234	0.0004466
1246	0.00044
1258	0.0003927
1270	0.0003949
1282	0.0005555
1294	0.0008613
1306	0.0010021
1318	0.0009922
1330	0.0007315
1342	0.0008228
1354	0.0011506
1366	0.0019536
1378	0.00253
1390	0.0027346
1402	0.0017369
1414	0.0017369
1426	0.0023386
1438	0.0033077
1450	0.0040865
1462	0.0037301
1474	0.0024761
1486	0.0013354
1498	0.0009669
1510	0.0007271
1522	0.0006567
1534	0.0006017
1546	0.0006193
1558	0.0007282
1570	0.0009295
1582	0.0013695
1594	0.0023045
1606	0.0030184
1618	0.0031394
1630	0.0022858
1642	0.0018909
1654	0.0014487
1666	0.0010241
1678	0.0004147
1690	0.0002398
1702	0.0002134
1714	0.0001837
1726	0.0002046
1738	0.0003355
1750	0.0007161
1762	0.0013244
1774	0.0015103
1786	0.0012265
1798	0.0005786
1810	0.0003322
1822	0.0002519
1834	0.0002937
1846	0.0003168
1858	0.0002761
1870	0.0001584
1882	0.0001254
1894	8.69e-05
1906	6.71e-05
1918	3.63e-05
1930	1.65e-05
1942	4.51e-05
1954	1.98e-05
1966	5.06e-05
1978	0.0001012
1990	9.13e-05
2002	0.0001474
2014	6.6e-05
2026	1.98e-05
2038	2.75e-05
2050	1.98e-05
2062	1.87e-05
2074	3.19e-05
2086	4.95e-05
2098	2.53e-05
2110	7.26e-05
2122	2.2e-05
2134	4.4e-05
2146	1.87e-05
2158	3.3e-05
2170	2.09e-05
2182	5.72e-05
2194	5.39e-05
2206	2.64e-05
2218	5.06e-05
2230	7.04e-05
2242	6.38e-05
2254	4.4e-06
2266	6.38e-05
2278	8.47e-05
2290	7.48e-05
2302	0.000132
2314	8.58e-05
2326	9.57e-05
2338	3.63e-05
2350	6.71e-05
2362	4.29e-05
2374	7.92e-05
2386	0.0001232
2398	0.0001023
2410	0.0001078
2422	4.07e-05
2434	7.15e-05
2446	0.0001012
2458	8.14e-05
2470	0.0001463
2482	0.0001155
2494	5.94e-05
2506	5.17e-05
2518	3.74e-05
2530	7.92e-05
2542	7.04e-05
2554	3.63e-05
2566	2.75e-05
2578	0.0001023
2590	9.24e-05
2602	6.49e-05
2614	6.6e-05
2626	5.5e-05
2638	6.05e-05
2650	4.4e-05
2662	8.36e-05
2674	9.35e-05
2686	0.0001199
2698	0.0001364
2710	0.0001815
2722	0.0003597
2734	0.0005269
2746	0.0005775
2758	0.0004323
2770	0.0003718
2782	0.000418
2794	0.0004939
2806	0.0006468
2818	0.0008129
2830	0.0011187
2842	0.0017094
2854	0.0032032
2866	0.0047212
2878	0.0055275
2890	0.005544
2902	0.0058938
2914	0.0082896
2926	0.0105028
2938	0.011
2950	0.0094556
2962	0.0089562
2974	0.0095755
2986	0.0093302
2998	0.0073579
3010	0.0063932
3022	0.0062788
3034	0.0057475
3046	0.0048499
3058	0.0036355
3070	0.003894
3082	0.0052514
3094	0.0045859
3106	0.002442
3118	0.001177
3130	0.0007931
3142	0.0006754
3154	0.0005544
3166	0.0003707
3178	0.0003366
3190	0.0002035
3202	0.0001925
3214	0.0001738
3226	0.0001441
3238	0.0001045
3250	0.0001837
3262	0.0001122
3274	0.0001199
3286	8.69e-05
3298	0.0001144
3310	0.0001243
3322	3.3e-06
3334	0.0001122
3346	0.0001177
3358	4.18e-05
3370	5.72e-05
3382	0.0001012
3394	0.0001463
3406	0.0001067
3418	0.0001067
3430	8.14e-05
3442	0.0001496
3454	0.0001177
3466	0.0001441
3478	5.83e-05
3490	0.00011
3502	5.61e-05
3514	9.35e-05
3526	0.0001155
3538	0.0001078
3550	9.24e-05
3562	8.14e-05
3574	0.0001254
3586	9.02e-05
3598	6.16e-05
3610	0.0001254
3622	0.0001034
3634	0.0001529
3646	0.0001001
3658	6.49e-05
3670	9.02e-05
3682	8.8e-05
3694	0.0001331
3706	0.0001012
3718	6.82e-05
3730	8.8e-05
3742	0.0001265
3754	0.0001001
3766	0.000187
3778	0.0001408
3790	0.0001353
3802	0.0001012
3814	0.0001419
3826	9.79e-05
3838	0.0001287
