Infrared Spectrum: 3,5-Dimethylheptane
Formula: C 9 H 20
CAS: 926-82-9
State: gas
Instrument: HP-GC/MS/IRD
Origin: NIST Mass Spectrometry Data Center
1/CM	ABSORBANCE
550	0.0001204
562	1.68e-05
574	0.0001316
586	8.12e-05
598	8.54e-05
610	0.0001092
622	0.0001344
634	0.0001568
646	9.94e-05
658	0.0002604
670	0.0001246
682	0.0001582
694	0.0001918
706	0.0003094
718	0.0002142
730	0.0001288
742	0.0002366
754	0.0002604
766	0.0003416
778	0.0003738
790	0.000336
802	0.0002422
814	0.0002912
826	4.9e-05
838	0.0001806
850	0.0002548
862	0.0002716
874	0.0002604
886	0.0002632
898	0.0002212
910	0.0002898
922	0.0002954
934	0.000308
946	0.0003094
958	0.0004228
970	0.0005474
982	0.0005712
994	0.000525
1006	0.0005096
1018	0.0004578
1030	0.0003626
1042	0.0002814
1054	0.000315
1066	0.0002366
1078	0.0002254
1090	0.0002688
1102	0.0002226
1114	0.0002366
1126	0.0002562
1138	0.0003486
1150	0.000385
1162	0.0003178
1174	0.000196
1186	0.0001624
1198	0.0001414
1210	0.0001596
1222	0.0001638
1234	0.00021
1246	0.0002114
1258	0.0002338
1270	0.0002604
1282	0.0002772
1294	0.000322
1306	0.0003332
1318	0.0003206
1330	0.0003766
1342	0.0004466
1354	0.0006104
1366	0.0009464
1378	0.001547
1390	0.0013916
1402	0.0006384
1414	0.0004214
1426	0.0004382
1438	0.000721
1450	0.0014014
1462	0.0019978
1474	0.001617
1486	0.000784
1498	0.0004326
1510	0.0003052
1522	0.000231
1534	0.000182
1546	0.0001862
1558	0.0001638
1570	0.0001666
1582	0.00014
1594	0.0001624
1606	0.0001568
1618	0.0001288
1630	0.0001274
1642	0.0001078
1654	0.0001162
1666	0.0001288
1678	9.52e-05
1690	0.000112
1702	9.94e-05
1714	8.96e-05
1726	9.94e-05
1738	0.0001008
1750	9.8e-05
1762	0.0001064
1774	0.0001064
1786	7.98e-05
1798	8.12e-05
1810	4.48e-05
1822	5.04e-05
1834	7.14e-05
1846	5.04e-05
1858	6.3e-05
1870	5.46e-05
1882	5.46e-05
1894	4.76e-05
1906	3.5e-05
1918	4.34e-05
1930	6.72e-05
1942	6.86e-05
1954	5.6e-05
1966	3.92e-05
1978	5.18e-05
1990	2.66e-05
2002	4.9e-05
2014	3.22e-05
2026	2.8e-05
2038	4.06e-05
2050	4.48e-05
2062	4.34e-05
2074	5.18e-05
2086	2.66e-05
2098	2.94e-05
2110	3.5e-05
2122	1.4e-05
2134	9.8e-06
2146	4.62e-05
2158	3.36e-05
2170	6.16e-05
2182	2.52e-05
2194	2.24e-05
2206	2.38e-05
2218	5.46e-05
2230	3.92e-05
2242	1.4e-06
2254	1.82e-05
2266	9.8e-06
2278	1.96e-05
2290	2.24e-05
2302	5.04e-05
2314	5.6e-05
2326	4.48e-05
2338	5.46e-05
2350	5.88e-05
2362	5.74e-05
2374	5.18e-05
2386	5.88e-05
2398	6.86e-05
2410	7.7e-05
2422	8.26e-05
2434	8.54e-05
2446	8.96e-05
2458	4.9e-05
2470	7.7e-05
2482	7.14e-05
2494	6.02e-05
2506	8.68e-05
2518	9.52e-05
2530	8.54e-05
2542	0.0001176
2554	0.0001288
2566	0.0001246
2578	0.0001428
2590	0.0001512
2602	0.0001932
2614	0.000196
2626	0.000175
2638	0.0001946
2650	0.0001918
2662	0.0002324
2674	0.0002156
2686	0.0002422
2698	0.0002632
2710	0.0002772
2722	0.0003178
2734	0.0003556
2746	0.0003864
2758	0.0003612
2770	0.0003724
2782	0.0004326
2794	0.0005124
2806	0.0006314
2818	0.0007686
2830	0.0010304
2842	0.001589
2854	0.0026502
2866	0.004004
2878	0.005544
2890	0.0061362
2902	0.0067508
2914	0.0090118
2926	0.009954
2938	0.00903
2950	0.0088004
2962	0.0129948
2974	0.0121674
2986	0.0048832
2998	0.0018914
3010	0.0011382
3022	0.0008316
3034	0.000672
3046	0.0006104
3058	0.000518
3070	0.0005124
3082	0.0004452
3094	0.0004102
3106	0.0003556
3118	0.0003682
3130	0.0003486
3142	0.0003136
3154	0.000287
3166	0.0002926
3178	0.0002464
3190	0.000252
3202	0.0001778
3214	0.000133
3226	0.0001386
3238	0.000133
3250	9.8e-05
3262	0.0001092
3274	0.0001386
3286	0.0001358
3298	0.0001162
3310	7.98e-05
3322	9.94e-05
3334	0.000119
3346	7.7e-05
3358	9.52e-05
3370	8.4e-05
3382	0.0001106
3394	0.0001204
3406	8.12e-05
3418	5.46e-05
3430	0.0001204
3442	7.14e-05
3454	2.52e-05
3466	5.04e-05
3478	9.8e-05
3490	5.88e-05
3502	2.1e-05
3514	3.22e-05
3526	5.32e-05
3538	1.12e-05
3550	1.82e-05
3562	6.16e-05
3574	4.34e-05
3586	6.16e-05
3598	5.88e-05
3610	7.84e-05
3622	1.96e-05
3634	3.08e-05
3646	5.6e-05
3658	4.34e-05
3670	5.04e-05
3682	3.5e-05
3694	6.3e-05
3706	9.8e-05
3718	5.18e-05
3730	8.4e-05
3742	9.8e-05
3754	2.8e-05
3766	2.94e-05
3778	3.36e-05
3790	4.76e-05
3802	6.3e-05
3814	7.28e-05
3826	9.24e-05
3838	5.74e-05
