Infrared Spectrum: 2-Methyl-1,5-heptadien-4-ol
Formula: C 8 H 14 O
CAS: 926-98-7
State: gas
Instrument: HP-GC/MS/IRD
Origin: NIST Mass Spectrometry Data Center
1/CM	ABSORBANCE
550	0.0019635
562	0.000756
574	0.0007035
586	0.0008505
598	0.0005835
610	0.000279
622	0.00039
634	0.0002775
646	0.000333
658	0.0002595
670	0.000186
682	5.1e-05
694	0.0001935
706	0.000195
718	0.0002055
730	0.000129
742	4.95e-05
754	2.4e-05
766	8.55e-05
778	0.000192
790	0.0002355
802	0.000315
814	0.0004695
826	0.000714
838	0.0010995
850	0.0018915
862	0.002877
874	0.0041355
886	0.007359
898	0.008364
910	0.0047925
922	0.003351
934	0.0036555
946	0.0051105
958	0.0081345
970	0.008814
982	0.006291
994	0.00534
1006	0.0061515
1018	0.0067755
1030	0.0070935
1042	0.007038
1054	0.0060765
1066	0.0052605
1078	0.004707
1090	0.0037965
1102	0.003039
1114	0.002706
1126	0.00216
1138	0.0016875
1150	0.001476
1162	0.001593
1174	0.002004
1186	0.002496
1198	0.0027075
1210	0.002982
1222	0.0032235
1234	0.0034425
1246	0.00357
1258	0.003792
1270	0.003684
1282	0.0032565
1294	0.003048
1306	0.0030705
1318	0.0030105
1330	0.00303
1342	0.003408
1354	0.003954
1366	0.0049515
1378	0.006138
1390	0.0050805
1402	0.003387
1414	0.002874
1426	0.0033795
1438	0.004248
1450	0.004656
1462	0.0038085
1474	0.002337
1486	0.0013845
1498	0.0009675
1510	0.0007545
1522	0.0006255
1534	0.000528
1546	0.0005025
1558	0.000486
1570	0.000528
1582	0.000567
1594	0.000618
1606	0.000771
1618	0.0011805
1630	0.002184
1642	0.0034125
1654	0.0032475
1666	0.002217
1678	0.001398
1690	0.0006075
1702	0.000408
1714	0.0003585
1726	0.0004245
1738	0.000369
1750	0.000354
1762	0.000303
1774	0.000345
1786	0.000567
1798	0.000639
1810	0.0004665
1822	0.0002475
1834	0.0001665
1846	0.0001065
1858	7.5e-05
1870	6.3e-05
1882	1.2e-05
1894	3.6e-05
1906	2.85e-05
1918	1.65e-05
1930	3.6e-05
1942	1.35e-05
1954	2.1e-05
1966	3.3e-05
1978	5.1e-05
1990	7.95e-05
2002	0.0001095
2014	8.25e-05
2026	5.7e-05
2038	4.95e-05
2050	4.95e-05
2062	4.05e-05
2074	2.1e-05
2086	2.85e-05
2098	4.35e-05
2110	6.9e-05
2122	1.95e-05
2134	1.95e-05
2146	2.25e-05
2158	4.65e-05
2170	1.2e-05
2182	3e-05
2194	4.35e-05
2206	5.25e-05
2218	4.65e-05
2230	2.25e-05
2242	3.15e-05
2254	5.85e-05
2266	6.9e-05
2278	3.45e-05
2290	4.65e-05
2302	6e-05
2314	4.95e-05
2326	8.4e-05
2338	6e-05
2350	5.1e-05
2362	8.55e-05
2374	6.6e-05
2386	7.35e-05
2398	6.45e-05
2410	4.05e-05
2422	5.1e-05
2434	5.4e-05
2446	7.95e-05
2458	5.7e-05
2470	7.95e-05
2482	5.55e-05
2494	7.05e-05
2506	3.45e-05
2518	1.35e-05
2530	6e-05
2542	3.15e-05
2554	7.2e-05
2566	5.85e-05
2578	6.6e-05
2590	6.45e-05
2602	7.95e-05
2614	7.05e-05
2626	8.55e-05
2638	6.15e-05
2650	9e-05
2662	0.00012
2674	0.0001155
2686	0.000153
2698	0.00018
2710	0.0002655
2722	0.0003195
2734	0.000522
2746	0.0006075
2758	0.0004335
2770	0.000426
2782	0.0005355
2794	0.0006255
2806	0.0007875
2818	0.0012135
2830	0.0017955
2842	0.0027975
2854	0.0043935
2866	0.006852
2878	0.0080205
2890	0.0084255
2902	0.009537
2914	0.0115665
2926	0.014652
2938	0.014343
2950	0.011106
2962	0.0089325
2974	0.009846
2986	0.0090885
2998	0.006663
3010	0.0053355
3022	0.0044925
3034	0.0037965
3046	0.003003
3058	0.00288
3070	0.004188
3082	0.005478
3094	0.0031125
3106	0.0013005
3118	0.0007875
3130	0.0005985
3142	0.0004275
3154	0.000324
3166	0.000237
3178	0.0001545
3190	0.0001245
3202	0.000126
3214	0.0001005
3226	1.65e-05
3238	8.85e-05
3250	0.0001035
3262	0.000108
3274	5.7e-05
3286	7.65e-05
3298	0.000129
3310	7.05e-05
3322	9.6e-05
3334	0.000132
3346	0.00012
3358	0.0001215
3370	0.000138
3382	0.000156
3394	0.00015
3406	0.00018
3418	0.000186
3430	0.0001935
3442	0.0001755
3454	0.000189
3466	0.0001725
3478	0.0001935
3490	0.000213
3502	0.000168
3514	0.000183
3526	0.000303
3538	0.000246
3550	0.0003525
3562	0.0003015
3574	0.000447
3586	0.0007875
3598	0.0012495
3610	0.001401
3622	0.0013665
3634	0.001974
3646	0.0024945
3658	0.0015975
3670	0.000675
3682	0.000423
3694	0.0003135
3706	0.000291
3718	0.000219
3730	0.0002235
3742	0.000279
3754	0.000228
3766	0.0002415
3778	0.000207
3790	0.000234
3802	0.0002085
3814	0.00021
3826	0.000258
3838	0.0002565
