Infrared Spectrum: ACETIC ACID, BORNYL ESTER
Formula: C12 H20 O2
CAS: 92618-89-8
State: LIQUID
Class: COBLENTZ
Instrument: Not specified, most likely a prism, grating, or hybrid spectrometer.
Sampling: TRANSMISSION
Path length: 0.0025 CM
Resolution: 4
Origin: INFRACORD
MICROMETERS	TRANSMITTANCE
2.541	0.96
2.57648	0.96
2.61196	0.958
2.64744	0.951
2.68292	0.945
2.7184	0.94
2.75388	0.932
2.78936	0.921
2.82484	0.905
2.86032	0.892
2.8958	0.894
2.93128	0.899
2.96676	0.905
3.00224	0.909
3.03772	0.911
3.0732	0.912
3.10868	0.911
3.14416	0.906
3.17964	0.899
3.21512	0.889
3.2506	0.841
3.28608	0.693
3.32156	0.221
3.35704	0.052
3.39252	0.157
3.428	0.268
3.46348	0.513
3.49896	0.835
3.53444	0.889
3.56992	0.901
3.6054	0.902
3.64088	0.902
3.67636	0.909
3.71184	0.919
3.74732	0.921
3.7828	0.922
3.81828	0.927
3.85376	0.93
3.88924	0.932
3.92472	0.934
3.9602	0.936
3.99568	0.937
4.03116	0.933
4.06664	0.932
4.10212	0.932
4.1376	0.932
4.17308	0.932
4.20856	0.932
4.24404	0.933
4.27952	0.933
4.315	0.936
4.35048	0.936
4.38596	0.936
4.42144	0.936
4.45692	0.938
4.4924	0.94
4.52788	0.941
4.56336	0.941
4.59884	0.941
4.63432	0.936
4.6698	0.934
4.70528	0.938
4.74076	0.941
4.77624	0.943
4.81172	0.943
4.8472	0.944
4.88268	0.946
4.91816	0.947
4.95364	0.949
4.98912	0.951
5.0246	0.951
5.06008	0.952
5.09556	0.952
5.13104	0.952
5.16652	0.952
5.202	0.952
5.23748	0.952
5.27296	0.952
5.30844	0.952
5.34392	0.949
5.3794	0.94
5.41488	0.932
5.45036	0.904
5.48584	0.873
5.52132	0.859
5.5568	0.832
5.59228	0.726
5.62776	0.594
5.66324	0.465
5.69872	0.286
5.7342	0.031
5.76968	0.023
5.80516	0.317
5.84064	0.648
5.87612	0.728
5.9116	0.806
5.94708	0.861
5.98256	0.868
6.01804	0.88
6.05352	0.88
6.089	0.883
6.12448	0.894
6.15996	0.906
6.19544	0.917
6.23092	0.92
6.2664	0.925
6.30188	0.926
6.33736	0.926
6.37284	0.926
6.40832	0.926
6.4438	0.919
6.47928	0.918
6.51476	0.914
6.55024	0.913
6.58572	0.906
6.6212	0.894
6.65668	0.859
6.69216	0.767
6.72764	0.562
6.76312	0.504
6.7986	0.504
6.83408	0.513
6.86956	0.38
6.90504	0.382
6.94052	0.516
6.976	0.595
7.01148	0.678
7.04696	0.747
7.08244	0.778
7.11792	0.781
7.1534	0.697
7.18888	0.422
7.22436	0.267
7.25984	0.219
7.29532	0.221
7.3308	0.214
7.36628	0.332
7.40176	0.766
7.43724	0.835
7.47272	0.848
7.5082	0.849
7.54368	0.849
7.57916	0.83
7.61464	0.714
7.65012	0.575
7.6856	0.482
7.72108	0.629
7.75656	0.651
7.79204	0.537
7.82752	0.491
7.863	0.417
7.89848	0.317
7.93396	0.103
7.96944	0.009
8.00492	0.001
8.0404	0.001
8.07588	0.002
8.11136	0.034
8.14684	0.126
8.18232	0.281
8.2178	0.47
8.25328	0.593
8.28876	0.675
8.32424	0.704
8.35972	0.703
8.3952	0.766
8.43068	0.797
8.46616	0.813
8.50164	0.813
8.53712	0.736
8.5726	0.601
8.60808	0.6
8.64356	0.708
8.67904	0.713
8.71452	0.691
8.75	0.601
8.78548	0.658
8.82096	0.768
8.85644	0.786
8.89192	0.748
8.9274	0.539
8.96288	0.38
8.99836	0.523
9.03384	0.753
9.06932	0.786
9.1048	0.792
9.14028	0.793
9.17576	0.758
9.21124	0.695
9.24672	0.674
9.2822	0.684
9.31768	0.688
9.35316	0.661
9.38864	0.595
9.42412	0.497
9.4596	0.377
9.49508	0.214
9.53056	0.14
9.56604	0.168
9.60152	0.167
9.637	0.082
9.67248	0.048
9.70796	0.08
9.74344	0.281
9.77892	0.478
9.8144	0.607
9.84988	0.663
9.88536	0.675
9.92084	0.632
9.95632	0.562
9.9918	0.523
10.0273	0.511
10.0628	0.598
10.0982	0.678
10.1337	0.672
10.1692	0.657
10.2047	0.763
10.2402	0.822
10.2756	0.849
10.3111	0.868
10.3466	0.867
10.3821	0.797
10.4176	0.712
10.453	0.707
10.4885	0.753
10.524	0.779
10.5595	0.783
10.595	0.774
10.6304	0.773
10.6659	0.834
10.7014	0.886
10.7369	0.901
10.7724	0.906
10.8078	0.901
10.8433	0.88
10.8788	0.881
10.9143	0.854
10.9498	0.799
10.9852	0.767
11.0207	0.765
11.0562	0.798
11.0917	0.849
11.1272	0.883
11.1626	0.896
11.1981	0.899
11.2336	0.867
11.2691	0.853
11.3046	0.888
11.34	0.911
11.3755	0.928
11.411	0.938
11.4465	0.944
11.482	0.947
11.5174	0.95
11.5529	0.952
11.5884	0.953
11.6239	0.953
11.6594	0.954
11.6948	0.956
11.7303	0.956
11.7658	0.956
11.8013	0.956
11.8368	0.949
11.8722	0.931
11.9077	0.913
11.9432	0.913
11.9787	0.913
12.0142	0.901
12.0496	0.85
12.0851	0.803
12.1206	0.795
12.1561	0.805
12.1916	0.869
12.227	0.902
12.2625	0.917
12.298	0.931
12.3335	0.937
12.369	0.94
12.4044	0.94
12.4399	0.94
12.4754	0.94
12.5109	0.94
12.5464	0.926
12.5818	0.901
12.6173	0.892
12.6528	0.89
12.6883	0.892
12.7238	0.905
12.7592	0.919
12.7947	0.933
12.8302	0.938
12.8657	0.939
12.9012	0.94
12.9366	0.941
12.9721	0.941
13.0076	0.941
13.0431	0.941
13.0786	0.941
13.114	0.941
13.1495	0.941
13.185	0.937
13.2205	0.927
13.256	0.918
13.2914	0.894
13.3269	0.874
13.3624	0.866
13.3979	0.863
13.4334	0.863
13.4688	0.868
13.5043	0.876
13.5398	0.883
13.5753	0.89
13.6108	0.895
13.6462	0.896
13.6817	0.899
13.7172	0.9
13.7527	0.9
13.7882	0.9
13.8236	0.9
13.8591	0.9
13.8946	0.9
13.9301	0.9
13.9656	0.9
14.001	0.899
14.0365	0.895
14.072	0.892
14.1075	0.887
14.143	0.883
14.1784	0.88
14.2139	0.87
14.2494	0.868
14.2849	0.867
14.3204	0.866
14.3558	0.861
14.3913	0.859
14.4268	0.855
14.4623	0.848
14.4978	0.842
14.5332	0.838
14.5687	0.835
14.6042	0.829
14.6397	0.829
14.6752	0.819
14.7106	0.809
14.7461	0.802
14.7816	0.795
14.8171	0.791
14.8526	0.784
14.888	0.783
14.9235	0.78
14.959	0.767
14.9945	0.738
