Infrared Spectrum: PYRUVIC ACID, (4-HYDROXY-6-METHYLPYRIMIDIN-2-YL)HYDRAZONE (KETO FORM)
Formula: C8 H10 N4 O3
CAS: 92610-88-3
State: SOLID (SPLIT MULL), FLUOROLUBE FOR 3800-1330 CM^-^1, NUJOL FOR 1330-400 CM^-^1
Melting point: 247 C DECOMP.
Class: COBLENTZ III
Instrument: BECKMAN IR-9 (GRATING)
Instrument parameters: ORDER CHANGES: 670, 1200, 2000 CM^-^1
Sampling: TRANSMISSION
Resolution: 2
Origin: DOW CHEMICAL COMPANY
1/CM	TRANSMITTANCE
402	0.6619
411	0.6773
420	0.7055
429	0.7138
438	0.7759
447	0.8534
456	0.8701
465	0.8719
474	0.8954
483	0.8381
492	0.7037
501	0.6385
510	0.8541
519	0.9045
528	0.8059
537	0.8
546	0.7262
555	0.8006
564	0.8011
573	0.8461
582	0.8218
591	0.81
600	0.702
609	0.7465
618	0.6963
627	0.8416
636	0.8354
645	0.7218
654	0.6983
663	0.7481
672	0.8768
681	0.8737
690	0.879
699	0.69
708	0.8917
717	0.8074
726	0.6746
735	0.5565
744	0.3508
753	0.7681
762	0.7565
771	0.8569
780	0.861
789	0.789
798	0.7997
807	0.7509
816	0.6447
825	0.4103
834	0.4146
843	0.3588
852	0.456
861	0.4368
870	0.5226
879	0.5586
888	0.5158
897	0.5153
906	0.5831
915	0.651
924	0.7191
933	0.7415
942	0.7557
951	0.7191
960	0.6064
969	0.3151
978	0.3965
987	0.5666
996	0.5879
1005	0.6667
1014	0.6966
1023	0.6623
1032	0.6431
1041	0.6375
1050	0.6127
1059	0.5819
1068	0.6147
1077	0.7235
1086	0.7321
1095	0.7102
1104	0.6644
1113	0.5832
1122	0.435
1131	0.2754
1140	0.2221
1149	0.1847
1158	0.3111
1167	0.3092
1176	0.3045
1185	0.2041
1194	0.0949
1203	0.0669
1212	0.0278
1221	0.0289
1230	0.0645
1239	0.1687
1248	0.2286
1257	0.4064
1266	0.4732
1275	0.4817
1284	0.4635
1293	0.4196
1302	0.3234
1311	0.2045
1320	0.1295
1329	0.1784
1338	0.3289
1347	0.2773
1356	0.2135
1365	0.2342
1374	0.3508
1383	0.338
1392	0.3529
1401	0.4141
1410	0.4866
1419	0.4955
1428	0.43
1437	0.4249
1446	0.4579
1455	0.4666
1464	0.4629
1473	0.4534
1482	0.317
1491	0.3834
1500	0.4348
1509	0.4928
1518	0.4908
1527	0.4612
1536	0.4214
1545	0.3452
1554	0.2401
1563	0.1262
1572	0.0503
1581	0.0455
1590	0.0285
1599	0.0214
1608	0.0326
1617	0.0478
1626	0.0612
1635	0.066
1644	0.0409
1653	0.0277
1662	0.0332
1671	0.0736
1680	0.0973
1689	0.1941
1698	0.2201
1707	0.2006
1716	0.1807
1725	0.2481
1734	0.3192
1743	0.4947
1752	0.723
1761	0.8076
1770	0.8397
1779	0.8561
1788	0.8726
1797	0.8834
1806	0.8902
1815	0.8904
1824	0.8941
1833	0.8963
1842	0.893
1851	0.8886
1860	0.8861
1869	0.8844
1878	0.8818
1887	0.8791
1896	0.8768
1905	0.8745
1914	0.8724
1923	0.8709
1932	0.8694
1941	0.868
1950	0.8641
1959	0.8622
1968	0.8641
1977	0.8652
1986	0.8659
1995	0.8657
2004	0.8541
2013	0.852
2022	0.8499
2031	0.8475
2040	0.8454
2049	0.8443
2058	0.8419
2067	0.8388
2076	0.8351
2085	0.8308
2094	0.8249
2103	0.8178
2112	0.8113
2121	0.8051
2130	0.7991
2139	0.7939
2148	0.7883
2157	0.782
2166	0.7757
2175	0.7691
2184	0.7632
2193	0.7574
2202	0.7522
2211	0.7472
2220	0.7421
2229	0.7363
2238	0.7306
2247	0.7247
2256	0.7192
2265	0.7138
2274	0.7083
2283	0.7028
2292	0.6973
2301	0.6923
2310	0.6882
2319	0.684
2328	0.6797
2337	0.6749
2346	0.6684
2355	0.6646
2364	0.6635
2373	0.6564
2382	0.6312
2391	0.6153
2400	0.6091
2409	0.6042
2418	0.5986
2427	0.5926
2436	0.5864
2445	0.5816
2454	0.5766
2463	0.5717
2472	0.5677
2481	0.5645
2490	0.5634
2499	0.5627
2508	0.5617
2517	0.559
2526	0.5544
2535	0.5481
2544	0.5421
2553	0.5384
2562	0.5348
2571	0.5322
2580	0.5296
2589	0.5268
2598	0.5234
2607	0.5199
2616	0.5163
2625	0.5126
2634	0.5089
2643	0.505
2652	0.5012
2661	0.4973
2670	0.4928
2679	0.4876
2688	0.4825
2697	0.4767
2706	0.4707
2715	0.4646
2724	0.4585
2733	0.4523
2742	0.4461
2751	0.4397
2760	0.4333
2769	0.4269
2778	0.4207
2787	0.4144
2796	0.4078
2805	0.4008
2814	0.3938
2823	0.3869
2832	0.3805
2841	0.3741
2850	0.3663
2859	0.3579
2868	0.3496
2877	0.3403
2886	0.3301
2895	0.3198
2904	0.3108
2913	0.3024
2922	0.2927
2931	0.2864
2940	0.2868
2949	0.2893
2958	0.2922
2967	0.296
2976	0.3001
2985	0.3045
2994	0.3054
3003	0.3019
3012	0.3032
3021	0.3089
3030	0.316
3039	0.3224
3048	0.328
3057	0.333
3066	0.338
3075	0.3426
3084	0.3469
3093	0.3504
3102	0.3526
3111	0.3562
3120	0.3611
3129	0.3666
3138	0.376
3147	0.3904
3156	0.408
3165	0.425
3174	0.4398
3183	0.4518
3192	0.461
3201	0.4688
3210	0.4738
3219	0.4756
3228	0.4769
3237	0.4727
3246	0.4604
3255	0.4376
3264	0.4074
3273	0.4087
3282	0.4822
3291	0.5678
3300	0.6126
3309	0.6362
3318	0.6476
3327	0.6523
3336	0.6551
3345	0.6553
3354	0.654
3363	0.6519
3372	0.649
3381	0.646
3390	0.6422
3399	0.6393
3408	0.6365
3417	0.6343
3426	0.6324
3435	0.6305
3444	0.6289
3453	0.6273
3462	0.6258
3471	0.6243
3480	0.6229
3489	0.6214
3498	0.6204
3507	0.6193
3516	0.6183
3525	0.6172
3534	0.6161
3543	0.615
3552	0.614
3561	0.6132
3570	0.6124
3579	0.6106
3588	0.6058
3597	0.6107
3606	0.6127
3615	0.6135
3624	0.6145
3633	0.6156
3642	0.6165
3651	0.6171
3660	0.6178
3669	0.6173
3678	0.6163
3687	0.6153
3696	0.6141
3705	0.6128
3714	0.6115
3723	0.6093
3732	0.6071
3741	0.6049
3750	0.6028
3759	0.6008
3768	0.5993
3777	0.5985
3786	0.5981
3795	0.5979
