Infrared Spectrum: 1-(4-Iodophenyl)pyrrole
Formula: C 10 H 8 I N
CAS: 92636-36-7
State: gas
Origin: EPA-IR VAPOR PHASE LIBRARY
1/CM	ABSORBANCE
549.8	0.001893
559.445	0.001359
569.09	0.001075
578.734	0.002243
588.379	0.0014648
598.024	0.004223
607.669	0.006393
617.313	0.004333
626.958	0.003763
636.603	0.004613
646.248	0.003753
655.893	0.004713
665.537	0.003743
675.182	0.004703
684.827	0.006603
694.472	0.009813
704.116	0.024083
713.761	0.046643
723.406	0.053943
733.051	0.032363
742.695	0.013743
752.34	0.007163
761.985	0.004763
771.63	0.004803
781.275	0.003603
790.919	0.003863
800.564	0.006663
810.209	0.016483
819.854	0.026593
829.498	0.021903
839.143	0.010833
848.788	0.004163
858.433	0.003143
868.078	0.002203
877.722	0.002913
887.367	0.002033
897.012	0.002293
906.657	0.004773
916.301	0.024893
925.946	0.037043
935.591	0.003943
945.236	0.002443
954.88	0.002013
964.525	0.002133
974.17	0.002333
983.815	0.003283
993.46	0.005193
1003.1	0.027173
1012.75	0.032603
1022.39	0.008993
1032.04	0.004803
1041.68	0.005703
1051.33	0.010983
1060.97	0.032423
1070.62	0.041523
1080.26	0.013763
1089.91	0.006883
1099.55	0.006773
1109.2	0.021033
1118.84	0.034873
1128.49	0.008893
1138.13	0.003913
1147.78	0.001703
1157.42	0.002363
1167.07	0.002663
1176.71	0.002333
1186.36	0.004603
1196	0.003723
1205.64	0.002653
1215.29	0.001933
1224.93	0.0010994
1234.58	0.002773
1244.22	0.0011231
1253.87	0.002673
1263.51	0.002783
1273.16	0.004043
1282.8	0.004333
1292.45	0.006993
1302.09	0.012103
1311.74	0.020063
1321.38	0.057993
1331.03	0.108233
1340.67	0.035593
1350.32	0.009753
1359.96	0.006793
1369.61	0.004603
1379.25	0.004743
1388.9	0.006373
1398.54	0.009973
1408.18	0.008863
1417.83	0.006173
1427.47	0.005313
1437.12	0.006803
1446.76	0.008083
1456.41	0.010153
1466.05	0.014273
1475.7	0.021523
1485.34	0.070943
1494.99	0.175073
1504.63	0.133983
1514.28	0.044463
1523.92	0.029553
1533.57	0.026943
1543.21	0.033653
1552.86	0.025013
1562.5	0.008913
1572.15	0.009023
1581.79	0.018853
1591.44	0.034083
1601.08	0.008473
1610.73	0.003023
1620.37	0.003363
1630.01	0.004143
1639.66	0.003763
1649.3	0.003173
1658.95	0.002163
1668.59	0.002013
1678.24	0.002133
1687.88	0.002973
1697.53	0.002483
1707.17	0.002073
1716.82	0.003153
1726.46	0.005653
1736.11	0.002703
1745.75	0.002763
1755.4	0.003593
1765.04	0.004103
1774.69	0.002733
1784.33	0.001713
1793.98	0.0012594
1803.62	0.0011562
1813.27	0.0013641
1822.91	0.0011569
1832.55	0.0012837
1842.2	0.0013648
1851.84	0.0011043
1861.49	0.001184
1871.13	0.001923
1880.78	0.002613
1890.42	0.002643
1900.07	0.001863
1909.71	0.0013136
1919.36	0.0013644
1929	0.001843
1938.65	0.0015099
1948.29	0.001133
1957.94	0.0013068
1967.58	0.0010185
1977.23	0.0010996
1986.87	0.0011386
1996.52	0.0009315
2006.16	0.0011212
2015.81	0.0012026
2025.45	0.0014962
2035.1	0.0015454
2044.74	0.001283
2054.38	0.0010797
2064.03	0.0010959
2073.67	0.0011184
2083.32	0.001043
2092.96	0.0008999
2102.61	0.001129
2112.25	0.0010139
2121.9	0.0011858
2131.54	0.0011606
2141.19	0.0012852
2150.83	0.0013321
2160.48	0.0010201
2170.12	0.0007556
2179.77	0.0011867
2189.41	0.0008387
2199.06	0.0012453
2208.7	0.0012926
2218.35	0.0011596
2227.99	0.0010024
2237.64	0.0011198
2247.28	0.001425
2256.92	0.0010786
2266.57	0.0012942
2276.21	0.0014382
2285.86	0.0012525
2295.5	0.001753
2305.15	0.0012526
2314.79	0.0012544
2324.44	0.0011288
2334.08	0.0009938
2343.73	0.0013995
2353.37	0.0010292
2363.02	0.001088
2372.66	0.0011448
2382.31	0.001389
2391.95	0.0011122
2401.6	0.001274
2411.24	0.0010746
2420.89	0.0011386
2430.53	0.0012281
2440.18	0.0014167
2449.82	0.001583
2459.47	0.0012619
2469.11	0.001813
2478.75	0.001783
2488.4	0.001653
2498.04	0.0010794
2507.69	0.0013863
2517.33	0.0015371
2526.98	0.0013167
2536.62	0.0014526
2546.27	0.0013505
2555.91	0.0014205
2565.56	0.0015059
2575.2	0.001583
2584.85	0.002173
2594.49	0.001773
2604.14	0.002373
2613.78	0.001963
2623.43	0.0013369
2633.07	0.002093
2642.72	0.002293
2652.36	0.002273
2662.01	0.002403
2671.65	0.001863
2681.29	0.0015185
2690.94	0.001953
2700.58	0.0015264
2710.23	0.0013947
2719.87	0.001713
2729.52	0.001703
2739.16	0.0010835
2748.81	0.0012427
2758.45	0.0009417
2768.1	0.0010116
2777.74	0.0013786
2787.39	0.0014655
2797.03	0.002163
2806.68	0.002063
2816.32	0.002283
2825.97	0.002113
2835.61	0.001823
2845.26	0.001593
2854.9	0.001803
2864.55	0.001713
2874.19	0.001813
2883.84	0.0014693
2893.48	0.0012556
2903.12	0.001145
2912.77	0.0012884
2922.41	0.0013306
2932.06	0.0012025
2941.7	0.001227
2951.35	0.0013404
2960.99	0.0010531
2970.64	0.0010767
2980.28	0.0008854
2989.93	0.0013794
2999.57	0.0012156
3009.22	0.000873
3018.86	0.0013296
3028.51	0.001733
3038.15	0.002753
3047.8	0.002503
3057.44	0.002873
3067.09	0.003983
3076.73	0.005453
3086.38	0.003603
3096.02	0.003603
3105.67	0.003743
3115.31	0.004223
3124.95	0.004923
3134.6	0.003083
3144.24	0.002993
3153.89	0.002123
3163.53	0.001813
3173.18	0.0011985
3182.82	0.0012624
3192.47	0.0008352
3202.11	0.0010589
3211.76	0.000398
3221.4	0.00045
3231.05	0.00077
3240.69	0.0008681
3250.34	0.0012029
3259.98	0.0004743
3269.63	0.0009014
3279.27	0.0012113
3288.92	0.0009118
3298.56	0.000751
3308.21	0.0010573
3317.85	0.0010558
3327.49	0.0010129
3337.14	0.0009924
3346.78	0.0010237
3356.43	0.0011703
3366.07	0.0007978
3375.72	0.0009499
3385.36	0.0007148
3395.01	0.0011589
3404.65	0.0013371
3414.3	0.0007882
3423.94	0.001693
3433.59	0.0010605
3443.23	0.0010554
3452.88	0.0015514
3462.52	0.0007208
3472.17	0.0011991
3481.81	0.0009075
3491.46	0.0009954
3501.1	0.0010638
3510.75	0.0012254
3520.39	0.0012415
3530.04	0.0013616
3539.68	0.001093
3549.32	0.0009475
3558.97	0.001983
3568.61	0.0012842
3578.26	0.0008256
3587.9	0.0009877
3597.55	0.0009365
3607.19	0.000883
3616.84	0.0013624
3626.48	0.000241
3636.13	0.0009445
3645.77	0.0008181
3655.42	0.0009828
3665.06	0.000764
3674.71	0.001623
3684.35	0.0009013
3694	0.0008578
3703.64	0.0011213
3713.29	0.0015366
3722.93	0.0010426
3732.58	0.001197
3742.22	0.0007665
3751.86	0.0009908
3761.51	0.001113
3771.15	0.001106
3780.8	0.0011339
3790.44	0.0013496
3800.09	0.0014961
3809.73	0.001253
3819.38	0.0007646
3829.02	0.0010291
3838.67	0.00061423
3848.31	0.0011294
3857.96	0.000374
3867.6	0.0008556
3877.25	0.0012427
3886.89	0.0010115
3896.54	0.0008398
3906.18	0.0010856
3915.83	0.0009223
3925.47	0.0010274
3935.12	0.0009416
3944.76	0.001171
3954.41	0.001281
3964.05	0.0011232
3973.69	0.0007179
3983.34	0.002503
3992.98	0.001753
