Infrared Spectrum: Acetic acid, thio-, S-2-bromoethyl ester
Formula: C4 H7 Br O S
CAS: 927-70-8
State: LIQUID (NEAT)
Class: COBLENTZ III
Instrument: PERKIN-ELMER 21 (GRATING)
Instrument parameters: FILTER CHANGE ABOUT 1090 CM^-^1
Path length: CAPILLARY
Resolution: 2
Origin: SOUTHERN RESEARCH INSTITUTE
1/CM	TRANSMITTANCE
601	0.3737
610	0.3698
619	0.3921
628	0.4713
637	0.6178
646	0.763
655	0.8285
664	0.846
673	0.8362
682	0.8756
691	0.899
700	0.9149
709	0.9226
718	0.9203
727	0.9162
736	0.914
745	0.9191
754	0.9343
763	0.9442
772	0.9434
781	0.9464
790	0.9491
799	0.9479
808	0.9443
817	0.9364
826	0.9239
835	0.911
844	0.9219
853	0.9362
862	0.9401
871	0.9392
880	0.9327
889	0.9213
898	0.9063
907	0.9001
916	0.8773
925	0.8423
934	0.8382
943	0.8259
952	0.7502
961	0.6673
970	0.71
979	0.836
988	0.8661
997	0.8637
1006	0.8561
1015	0.8595
1024	0.8702
1033	0.885
1042	0.8822
1051	0.8716
1060	0.8598
1069	0.8489
1078	0.815
1087	0.795
1096	0.6658
1105	0.5944
1114	0.5829
1123	0.562
1132	0.3683
1141	0.383
1150	0.691
1159	0.8533
1168	0.8748
1177	0.8862
1186	0.88
1195	0.8645
1204	0.6792
1213	0.8938
1222	0.9013
1231	0.8933
1240	0.8785
1249	0.8506
1258	0.7217
1267	0.7847
1276	0.841
1285	0.9024
1294	0.9043
1303	0.9064
1312	0.9082
1321	0.9041
1330	0.9015
1339	0.8693
1348	0.7994
1357	0.6665
1366	0.7853
1375	0.8469
1384	0.8307
1393	0.8097
1402	0.7917
1411	0.7482
1420	0.7325
1429	0.7271
1438	0.7391
1447	0.8148
1456	0.8503
1465	0.8643
1474	0.8703
1483	0.8759
1492	0.8812
1501	0.8848
1510	0.8891
1519	0.894
1528	0.8988
1537	0.9033
1546	0.9015
1555	0.8974
1564	0.9028
1573	0.9063
1582	0.9082
1591	0.9054
1600	0.8968
1609	0.8897
1618	0.8873
1627	0.8816
1636	0.8649
1645	0.8374
1654	0.7971
1663	0.759
1672	0.6068
1681	0.3437
1690	0.1703
1699	0.1922
1708	0.4436
1717	0.7397
1726	0.7942
1735	0.8286
1744	0.843
1753	0.856
1762	0.8698
1771	0.881
1780	0.8921
1789	0.9
1798	0.9041
1807	0.9069
1816	0.9084
1825	0.9087
1834	0.9084
1843	0.9078
1852	0.9073
1861	0.9075
1870	0.9075
1879	0.9072
1888	0.9068
1897	0.9065
1906	0.9064
1915	0.9064
1924	0.9065
1933	0.9068
1942	0.9071
1951	0.9055
1960	0.9049
1969	0.9058
1978	0.9076
1987	0.9093
1996	0.9074
2005	0.9048
2014	0.9043
2023	0.9043
2032	0.9044
2041	0.9043
2050	0.9042
2059	0.9042
2068	0.9042
2077	0.9042
2086	0.9043
2095	0.9049
2104	0.9054
2113	0.9062
2122	0.9075
2131	0.9094
2140	0.9085
2149	0.9076
2158	0.9067
2167	0.9056
2176	0.9046
2185	0.9041
2194	0.9037
2203	0.9033
2212	0.9037
2221	0.904
2230	0.9042
2239	0.9042
2248	0.9028
2257	0.9009
2266	0.895
2275	0.8898
2284	0.8885
2293	0.8893
2302	0.8921
2311	0.8988
2320	0.9053
2329	0.903
2338	0.8998
2347	0.8932
2356	0.8888
2365	0.8878
2374	0.8881
2383	0.8894
2392	0.8926
2401	0.8941
2410	0.8916
2419	0.8899
2428	0.8883
2437	0.8874
2446	0.8878
2455	0.8897
2464	0.8932
2473	0.8971
2482	0.8992
2491	0.8987
2500	0.8974
2509	0.8959
2518	0.894
2527	0.8913
2536	0.8885
2545	0.8853
2554	0.8839
2563	0.8857
2572	0.8832
2581	0.8832
2590	0.8854
2599	0.8845
2608	0.8816
2617	0.8828
2626	0.881
2635	0.8802
2644	0.8814
2653	0.8853
2662	0.8862
2671	0.883
2680	0.8771
2689	0.8716
2698	0.8697
2707	0.8708
2716	0.8729
2725	0.8684
2734	0.8689
2743	0.8736
2752	0.8823
2761	0.8744
2770	0.8745
2779	0.8823
2788	0.8789
2797	0.868
2806	0.8674
2815	0.8651
2824	0.8635
2833	0.8636
2842	0.8676
2851	0.867
2860	0.8625
2869	0.8557
2878	0.8511
2887	0.8596
2896	0.8618
2905	0.8463
2914	0.8297
2923	0.8243
2932	0.8281
2941	0.828
2950	0.8299
2959	0.8336
2968	0.8389
2977	0.8425
2986	0.8457
2995	0.8469
3004	0.8537
3013	0.8592
3022	0.8569
3031	0.8574
3040	0.8664
3049	0.8701
3058	0.8639
3067	0.8681
3076	0.873
3085	0.8732
3094	0.8724
3103	0.8764
3112	0.8821
3121	0.8834
3130	0.8851
3139	0.8913
3148	0.89
3157	0.8886
3166	0.8901
3175	0.8885
3184	0.8783
3193	0.878
3202	0.8806
3211	0.8809
3220	0.8798
3229	0.8822
3238	0.8915
3247	0.8926
3256	0.8931
3265	0.8937
3274	0.8938
3283	0.8931
3292	0.8913
3301	0.8896
3310	0.8906
3319	0.8932
3328	0.8937
3337	0.8887
3346	0.8797
3355	0.8799
3364	0.8802
3373	0.8764
3382	0.879
3391	0.8882
3400	0.8903
3409	0.891
3418	0.8935
3427	0.8943
3436	0.8925
3445	0.8923
3454	0.9004
3463	0.8952
3472	0.8955
3481	0.8959
3490	0.8956
3499	0.8944
3508	0.893
3517	0.9044
3526	0.8965
3535	0.8935
3544	0.9045
3553	0.908
3562	0.8966
3571	0.891
3580	0.8945
3589	0.9004
3598	0.9129
3607	0.9074
3616	0.9029
3625	0.9038
3634	0.9046
3643	0.905
3652	0.905
3661	0.9021
3670	0.8997
3679	0.9008
3688	0.9042
3697	0.9088
3706	0.9117
3715	0.9091
3724	0.9004
3733	0.8963
3742	0.9013
3751	0.9066
3760	0.9088
3769	0.9064
3778	0.8959
3787	0.9016
3796	0.9348
3805	0.9139
3814	0.9117
3823	0.9142
3832	0.9141
3841	0.9075
3850	0.8995
3859	0.8966
3868	0.903
3877	0.9085
3886	0.908
3895	0.9083
