Infrared Spectrum: 7-Tridecanol
Formula: C 13 H 28 O
CAS: 927-45-7
State: gas
Instrument: HP-GC/MS/IRD
Origin: NIST Mass Spectrometry Data Center
1/CM	ABSORBANCE
550	0.0014892
562	0.000238
574	0.000136
586	0.000136
598	0.0001088
610	6.8e-05
622	3.4e-05
634	6.8e-05
646	2.04e-05
658	6.12e-05
670	6.8e-05
682	8.84e-05
694	0.0002516
706	0.0004216
718	0.0009248
730	0.0010064
742	0.0007412
754	0.0007004
766	0.0005304
778	0.000476
790	0.0003808
802	0.0004692
814	0.000476
826	0.0005032
838	0.0006936
850	0.0009248
862	0.0011356
874	0.001156
886	0.0012172
898	0.0012852
910	0.001326
922	0.0012376
934	0.0012784
946	0.0016184
958	0.0022916
970	0.0027812
982	0.0028356
994	0.0026792
1006	0.0027676
1018	0.0032708
1030	0.0042092
1042	0.0049844
1054	0.004692
1066	0.0037944
1078	0.0031076
1090	0.0027744
1102	0.0026996
1114	0.0028968
1126	0.0030668
1138	0.0025636
1150	0.0018156
1162	0.001768
1174	0.0019924
1186	0.002176
1198	0.0023188
1210	0.002482
1222	0.0026452
1234	0.0027812
1246	0.0028084
1258	0.0027948
1270	0.0027404
1282	0.002516
1294	0.0024072
1306	0.0023528
1318	0.0022168
1330	0.0024004
1342	0.0029444
1354	0.0033932
1366	0.003944
1378	0.004522
1390	0.003978
1402	0.0027404
1414	0.0020536
1426	0.0021352
1438	0.0031348
1450	0.0048892
1462	0.0061676
1474	0.0041956
1486	0.0019856
1498	0.001122
1510	0.0006732
1522	0.0004488
1534	0.0004692
1546	0.0003468
1558	6.12e-05
1570	0.0003604
1582	0.0004148
1594	0.0003944
1606	0.0003604
1618	0.0002448
1630	0.0002924
1642	0.0002448
1654	3.4e-05
1666	0.0002244
1678	0.0002312
1690	0.0002448
1702	7.48e-05
1714	0.0001496
1726	0.0002652
1738	0.0001428
1750	0.0001428
1762	0.0001836
1774	0.0001292
1786	0.000204
1798	0.0001836
1810	0.0002176
1822	0.0001836
1834	0.0001972
1846	0.0001496
1858	0.0001904
1870	0.0001564
1882	0.0001972
1894	0.00017
1906	0.0001564
1918	0.00017
1930	0.0001904
1942	0.0001632
1954	0.0001564
1966	0.0001496
1978	0.0001564
1990	0.0001292
2002	0.0001564
2014	0.0001496
2026	0.0001768
2038	0.0001836
2050	0.0001836
2062	0.0001564
2074	0.0001428
2086	0.0001224
2098	0.0001088
2110	0.0001088
2122	0.000102
2134	0.0001224
2146	9.52e-05
2158	0.000102
2170	8.84e-05
2182	8.16e-05
2194	8.84e-05
2206	8.16e-05
2218	8.16e-05
2230	7.48e-05
2242	9.52e-05
2254	8.16e-05
2266	8.16e-05
2278	6.8e-05
2290	8.16e-05
2302	7.48e-05
2314	6.12e-05
2326	4.08e-05
2338	7.48e-05
2350	5.44e-05
2362	4.08e-05
2374	2.72e-05
2386	3.4e-05
2398	4.08e-05
2410	4.08e-05
2422	2.04e-05
2434	2.72e-05
2446	1.36e-05
2458	1.36e-05
2470	1.36e-05
2482	6.8e-06
2494	2.72e-05
2506	4.76e-05
2518	6.8e-05
2530	9.52e-05
2542	0.0001428
2554	0.0001496
2566	0.000204
2578	0.0002244
2590	0.0002788
2602	0.0003468
2614	0.0003604
2626	0.0004284
2638	0.0004828
2650	0.000578
2662	0.0006596
2674	0.0007616
2686	0.0007684
2698	0.0007616
2710	0.0007412
2722	0.0007956
2734	0.000918
2746	0.001054
2758	0.001088
2770	0.0012308
2782	0.0014688
2794	0.0018836
2806	0.0024616
2818	0.0032844
2830	0.0049028
2842	0.0084728
2854	0.017306
2866	0.0264656
2878	0.0238748
2890	0.0203864
2902	0.0228344
2914	0.0347956
2926	0.05695
2938	0.0665856
2950	0.0431596
2962	0.0339116
2974	0.0259896
2986	0.0108256
2998	0.0058548
3010	0.0037196
3022	0.0026588
3034	0.001972
3046	0.0015028
3058	0.0012376
3070	0.0010336
3082	0.000884
3094	0.000782
3106	0.0006392
3118	0.0005576
3130	0.0005032
3142	0.0004692
3154	0.000408
3166	0.0003672
3178	0.00034
3190	0.0002788
3202	0.0002516
3214	0.0001564
3226	0.0001156
3238	0.0001156
3250	7.48e-05
3262	8.16e-05
3274	4.76e-05
3286	7.48e-05
3298	6.8e-05
3310	6.12e-05
3322	8.84e-05
3334	5.44e-05
3346	9.52e-05
3358	6.8e-05
3370	0.0001224
3382	0.0001224
3394	0.000102
3406	0.0001428
3418	0.000136
3430	0.0001224
3442	0.0001428
3454	0.000136
3466	9.52e-05
3478	8.84e-05
3490	8.16e-05
3502	9.52e-05
3514	6.8e-05
3526	3.4e-05
3538	8.16e-05
3550	5.44e-05
3562	6.12e-05
3574	8.16e-05
3586	2.72e-05
3598	0.0001224
3610	0.0001768
3622	0.000476
3634	0.0008568
3646	0.0015232
3658	0.0018768
3670	0.0006664
3682	0.0003332
3694	0.000204
3706	0.0002108
3718	0.0002108
3730	7.48e-05
3742	0
3754	0
3766	0.0001156
3778	0.0001836
3790	0.0002108
3802	7.48e-05
3814	0.0001564
3826	0.0001768
3838	8.84e-05
