Infrared Spectrum: 6-Undecanone
Formula: C 11 H 22 O
CAS: 927-49-1
State: gas
Instrument: HP-GC/MS/IRD
Origin: NIST Mass Spectrometry Data Center
1/CM	ABSORBANCE
550	0.0006586
562	0.0002479
574	0.0001036
586	9.99e-05
598	8.88e-05
610	5.18e-05
622	0.0002109
634	0.0001887
646	0.0001443
658	8.88e-05
670	8.88e-05
682	3.7e-06
694	0.0001628
706	0.0003811
718	0.0006734
730	0.000999
742	0.0009287
754	0.000666
766	0.0004736
778	0.0003182
790	0.000185
802	0.0001258
814	9.99e-05
826	7.4e-05
838	0.0001665
850	0.0002812
862	0.0002553
874	0.0002627
886	0.0002997
898	0.0003996
910	0.0005513
922	0.0007178
934	0.0008066
946	0.0007992
958	0.0009065
970	0.0009657
982	0.0009657
994	0.0009879
1006	0.0011766
1018	0.0013172
1030	0.0016132
1042	0.0025678
1054	0.0033633
1066	0.0025641
1078	0.0018278
1090	0.0014874
1102	0.0015688
1114	0.0022126
1126	0.0032523
1138	0.003626
1150	0.0032338
1162	0.0024272
1174	0.0017094
1186	0.0016613
1198	0.002109
1210	0.0024827
1222	0.0023902
1234	0.0021645
1246	0.0019906
1258	0.0016835
1270	0.0019462
1282	0.0022607
1294	0.0026381
1306	0.0027306
1318	0.002664
1330	0.0031672
1342	0.004329
1354	0.0050542
1366	0.0047619
1378	0.003515
1390	0.0027676
1402	0.0023643
1414	0.0029156
1426	0.003071
1438	0.003367
1450	0.0043105
1462	0.0050764
1474	0.0036667
1486	0.0017908
1498	0.000962
1510	0.0006438
1522	0.0004366
1534	0.0003219
1546	0.000259
1558	0.000185
1570	0.0001739
1582	0.0002035
1594	0.0002109
1606	0.0002146
1618	0.0002109
1630	0.0002849
1642	0.0003589
1654	0.0004588
1666	0.0007807
1678	0.0013394
1690	0.0023458
1702	0.0051948
1714	0.012839
1726	0.018241
1738	0.0097125
1750	0.0031783
1762	0.0013986
1774	0.000777
1786	0.0004884
1798	0.0002997
1810	0.0001998
1822	0.0001813
1834	0.0001184
1846	8.88e-05
1858	8.88e-05
1870	5.18e-05
1882	7.03e-05
1894	5.18e-05
1906	2.22e-05
1918	3.7e-05
1930	1.85e-05
1942	2.22e-05
1954	1.11e-05
1966	1.85e-05
1978	2.22e-05
1990	1.48e-05
2002	1.48e-05
2014	6.29e-05
2026	3.7e-05
2038	6.29e-05
2050	6.29e-05
2062	4.81e-05
2074	3.7e-05
2086	3.33e-05
2098	3.33e-05
2110	3.33e-05
2122	2.22e-05
2134	3.33e-05
2146	7.4e-05
2158	5.55e-05
2170	7.03e-05
2182	6.29e-05
2194	4.44e-05
2206	6.29e-05
2218	5.55e-05
2230	7.4e-05
2242	4.07e-05
2254	5.18e-05
2266	4.07e-05
2278	5.92e-05
2290	2.22e-05
2302	4.44e-05
2314	4.81e-05
2326	2.59e-05
2338	4.44e-05
2350	5.92e-05
2362	1.85e-05
2374	3.7e-05
2386	4.81e-05
2398	7.03e-05
2410	6.66e-05
2422	4.44e-05
2434	4.81e-05
2446	4.07e-05
2458	4.81e-05
2470	1.85e-05
2482	2.96e-05
2494	3.7e-05
2506	7.4e-06
2518	2.96e-05
2530	6.29e-05
2542	7.77e-05
2554	6.66e-05
2566	0.000111
2578	0.0001369
2590	0.0001406
2602	0.0001258
2614	0.0001776
2626	0.0002146
2638	0.0002479
2650	0.0003108
2662	0.0003626
2674	0.000407
2686	0.0004329
2698	0.0004329
2710	0.000407
2722	0.0004662
2734	0.0005957
2746	0.0006882
2758	0.0007363
2770	0.000814
2782	0.0009768
2794	0.0013098
2806	0.0017464
2818	0.0022681
2830	0.0031265
2842	0.0048507
2854	0.0088948
2866	0.0144115
2878	0.0167499
2890	0.0166796
2902	0.0170237
2914	0.0215007
2926	0.030562
2938	0.037
2950	0.0336071
2962	0.0327857
2974	0.0267621
2986	0.0117031
2998	0.0057572
3010	0.0034558
3022	0.0023791
3034	0.0017612
3046	0.0013542
3058	0.0010656
3070	0.0009065
3082	0.000777
3094	0.0006623
3106	0.0005846
3118	0.0005032
3130	0.0004588
3142	0.000407
3154	0.0003367
3166	0.00037
3178	0.0003182
3190	0.0002516
3202	0.000222
3214	0.0001739
3226	0.0001591
3238	8.88e-05
3250	0.000111
3262	8.88e-05
3274	7.03e-05
3286	8.88e-05
3298	5.92e-05
3310	5.92e-05
3322	6.29e-05
3334	8.88e-05
3346	4.44e-05
3358	4.07e-05
3370	0.0001554
3382	0.0001258
3394	0.0001406
3406	0.0001887
3418	0.0002886
3430	0.0003626
3442	0.0003219
3454	0.0001961
3466	8.51e-05
3478	8.88e-05
3490	9.25e-05
3502	7.03e-05
3514	2.59e-05
3526	3.33e-05
3538	5.92e-05
3550	3.33e-05
3562	5.55e-05
3574	7.03e-05
3586	5.55e-05
3598	8.51e-05
3610	6.29e-05
3622	6.66e-05
3634	4.07e-05
3646	9.62e-05
3658	0.0001184
3670	9.25e-05
3682	0.0001369
3694	0.000111
3706	0.000111
3718	0.0001591
3730	0.0001147
3742	0.000111
3754	0.000111
3766	0.0001369
3778	0.0001628
3790	0.0001295
3802	0.0001369
3814	0.0001258
3826	0.0001036
3838	0.0001147
