Infrared Spectrum: P-NITRO CARBANILIC ACID, n-OCTYL ESTER
Formula: C15 H22 N2 O4
CAS: 92700-71-5
State: SOLID (1.8 mg / 100 mg KBr)
Melting point: 110 C
Class: COBLENTZ
Instrument: Not specified, most likely a grating spectrometer.
Sampling: TRANSMISSION
Resolution: 4
Origin: CITRUS EXPERIMENT STATION, UNIVERSITY OF FLORIDA (G. EDWARDS)
MICROMETERS	TRANSMITTANCE
2.053	0.708
2.08619	0.708
2.11938	0.708
2.15258	0.708
2.18577	0.708
2.21896	0.708
2.25215	0.71
2.28535	0.715
2.31854	0.715
2.35173	0.715
2.38492	0.718
2.41812	0.719
2.45131	0.718
2.4845	0.719
2.51769	0.719
2.55089	0.719
2.58408	0.72
2.61727	0.72
2.65046	0.72
2.68366	0.719
2.71685	0.718
2.75004	0.718
2.78323	0.715
2.81643	0.714
2.84962	0.711
2.88281	0.706
2.916	0.692
2.9492	0.345
2.98239	0.676
3.01558	0.711
3.04877	0.719
3.08197	0.723
3.11516	0.723
3.14835	0.722
3.18154	0.714
3.21473	0.712
3.24793	0.712
3.28112	0.712
3.31431	0.704
3.3475	0.564
3.3807	0.448
3.41389	0.471
3.44708	0.58
3.48027	0.56
3.51347	0.69
3.54666	0.72
3.57985	0.73
3.61304	0.736
3.64624	0.738
3.67943	0.739
3.71262	0.74
3.74581	0.744
3.77901	0.744
3.8122	0.746
3.84539	0.748
3.87858	0.751
3.91178	0.751
3.94497	0.751
3.97816	0.751
4.01135	0.75
4.04455	0.75
4.07774	0.751
4.11093	0.763
4.14412	0.765
4.17732	0.765
4.21051	0.773
4.2437	0.778
4.27689	0.777
4.31008	0.777
4.34328	0.777
4.37647	0.777
4.40966	0.777
4.44285	0.777
4.47605	0.778
4.50924	0.779
4.54243	0.779
4.57562	0.782
4.60882	0.786
4.64201	0.786
4.6752	0.787
4.70839	0.787
4.74159	0.787
4.77478	0.789
4.80797	0.789
4.84116	0.789
4.87436	0.789
4.90755	0.789
4.94074	0.789
4.97393	0.789
5.00713	0.789
5.04032	0.79
5.07351	0.79
5.1067	0.789
5.1399	0.787
5.17309	0.79
5.20628	0.791
5.23947	0.791
5.27267	0.791
5.30586	0.79
5.33905	0.79
5.37224	0.786
5.40544	0.785
5.43863	0.775
5.47182	0.765
5.50501	0.759
5.5382	0.758
5.5714	0.758
5.60459	0.758
5.63778	0.75
5.67097	0.692
5.70417	0.44
5.73736	0.441
5.77055	0.584
5.80374	0.724
5.83694	0.759
5.87013	0.767
5.90332	0.769
5.93651	0.769
5.96971	0.767
6.0029	0.763
6.03609	0.751
6.06928	0.748
6.10248	0.73
6.13567	0.672
6.16886	0.456
6.20205	0.497
6.23525	0.367
6.26844	0.579
6.30163	0.67
6.33482	0.643
6.36802	0.52
6.40121	0.252
6.4344	0.222
6.46759	0.44
6.50079	0.5
6.53398	0.403
6.56717	0.332
6.60036	0.473
6.63355	0.503
6.66675	0.493
6.69994	0.636
6.73313	0.562
6.76632	0.623
6.79952	0.679
6.83271	0.714
6.8659	0.728
6.89909	0.742
6.93229	0.746
6.96548	0.743
6.99867	0.715
7.03186	0.62
7.06506	0.667
7.09825	0.714
7.13144	0.706
7.16463	0.692
7.19783	0.652
7.23102	0.667
7.26421	0.69
7.2974	0.691
7.3306	0.61
7.36379	0.53
7.39698	0.393
7.43017	0.228
7.46337	0.097
7.49656	0.118
7.52975	0.185
7.56294	0.283
7.59614	0.349
7.62933	0.345
7.66252	0.544
7.69571	0.622
7.7289	0.66
7.7621	0.663
7.79529	0.659
7.82848	0.642
7.86167	0.562
7.89487	0.555
7.92806	0.663
7.96125	0.654
7.99444	0.618
8.02764	0.56
8.06083	0.488
8.09402	0.397
8.12721	0.236
8.16041	0.078
8.1936	0.081
8.22679	0.106
8.25998	0.216
8.29318	0.361
8.32637	0.443
8.35956	0.46
8.39275	0.51
8.42595	0.503
8.45914	0.492
8.49233	0.578
8.52552	0.652
8.55872	0.67
8.59191	0.692
8.6251	0.71
8.65829	0.73
8.69149	0.74
8.72468	0.743
8.75787	0.742
8.79106	0.734
8.82425	0.691
8.85745	0.67
8.89064	0.683
8.92383	0.656
8.95702	0.595
8.99022	0.476
9.02341	0.405
9.0566	0.568
9.08979	0.656
9.12299	0.68
9.15618	0.643
9.18937	0.507
9.22256	0.571
9.25576	0.664
9.28895	0.703
9.32214	0.714
9.35533	0.71
9.38853	0.664
9.42172	0.67
9.45491	0.66
9.4881	0.562
9.5213	0.421
9.55449	0.492
9.58768	0.616
9.62087	0.659
9.65407	0.688
9.68726	0.726
9.72045	0.75
9.75364	0.765
9.78684	0.777
9.82003	0.781
9.85322	0.786
9.88641	0.786
9.9196	0.786
9.9528	0.786
9.98599	0.789
10.0192	0.789
10.0524	0.789
10.0856	0.789
10.1188	0.799
10.152	0.799
10.1851	0.798
10.2183	0.794
10.2515	0.789
10.2847	0.774
10.3179	0.761
10.3511	0.769
10.3843	0.785
10.4175	0.789
10.4507	0.802
10.4839	0.811
10.5171	0.817
10.5503	0.817
10.5835	0.817
10.6166	0.819
10.6498	0.822
10.683	0.826
10.7162	0.827
10.7494	0.829
10.7826	0.831
10.8158	0.83
10.849	0.83
10.8822	0.829
10.9154	0.829
10.9486	0.829
10.9818	0.829
11.015	0.829
11.0481	0.829
11.0813	0.829
11.1145	0.827
11.1477	0.827
11.1809	0.826
11.2141	0.825
11.2473	0.826
11.2805	0.827
11.3137	0.827
11.3469	0.825
11.3801	0.815
11.4133	0.797
11.4465	0.735
11.4796	0.619
11.5128	0.704
11.546	0.769
11.5792	0.765
11.6124	0.74
11.6456	0.611
11.6788	0.365
11.712	0.351
11.7452	0.475
11.7784	0.656
11.8116	0.722
11.8448	0.754
11.878	0.75
11.9112	0.744
11.9443	0.73
11.9775	0.731
12.0107	0.763
12.0439	0.782
12.0771	0.789
12.1103	0.79
12.1435	0.801
12.1767	0.81
12.2099	0.815
12.2431	0.817
12.2763	0.821
12.3095	0.822
12.3427	0.823
12.3758	0.822
12.409	0.822
12.4422	0.819
12.4754	0.811
12.5086	0.809
12.5418	0.809
12.575	0.809
12.6082	0.805
12.6414	0.801
12.6746	0.798
12.7078	0.798
12.741	0.795
12.7742	0.793
12.8073	0.791
12.8405	0.789
12.8737	0.779
12.9069	0.755
12.9401	0.728
12.9733	0.616
13.0065	0.551
13.0397	0.6
13.0729	0.64
13.1061	0.682
13.1393	0.694
13.1725	0.675
13.2057	0.646
13.2388	0.68
13.272	0.714
13.3052	0.676
13.3384	0.471
13.3716	0.459
13.4048	0.624
13.438	0.702
13.4712	0.743
13.5044	0.763
13.5376	0.771
13.5708	0.771
13.604	0.771
13.6372	0.771
13.6703	0.771
13.7035	0.77
13.7367	0.765
13.7699	0.754
13.8031	0.748
13.8363	0.719
13.8695	0.686
13.9027	0.695
13.9359	0.735
13.9691	0.751
14.0023	0.753
14.0355	0.753
14.0687	0.751
14.1019	0.75
14.135	0.75
14.1682	0.747
14.2014	0.744
14.2346	0.738
14.2678	0.731
14.301	0.719
14.3342	0.7
14.3674	0.67
14.4006	0.62
14.4338	0.58
14.467	0.579
14.5002	0.592
14.5334	0.616
14.5665	0.648
14.5997	0.664
14.6329	0.671
14.6661	0.671
14.6993	0.671
14.7325	0.67
14.7657	0.67
14.7989	0.663
14.8321	0.65
14.8653	0.632
14.8985	0.596
14.9317	0.568
14.9649	0.572
14.998	0.61
