Infrared Spectrum: 1-BENZYL-3-(5-CARBOMETHOXYAMYL) UREA
Formula: C15 H22 N2 O3
CAS: 92700-37-3
State: SOLID (KBr PRESSING)
Melting point: 90 C
Class: COBLENTZ
Instrument: Not specified, most likely a prism, grating, or hybrid spectrometer.
Sampling: TRANSMISSION
Resolution: 4
Origin: EASTMAN KODAK COMPANY, RESEARCH LABORATORIES, ROCHESTER, N.Y.
MICROMETERS	TRANSMITTANCE
2.176	0.726
2.21118	0.723
2.24635	0.719
2.28153	0.725
2.3167	0.721
2.35188	0.725
2.38706	0.728
2.42223	0.723
2.45741	0.732
2.49259	0.735
2.52776	0.737
2.56294	0.739
2.59811	0.742
2.63329	0.742
2.66847	0.742
2.70364	0.739
2.73882	0.697
2.77399	0.654
2.80917	0.616
2.84435	0.59
2.87952	0.569
2.9147	0.506
2.94988	0.206
2.98505	0.147
3.02023	0.343
3.0554	0.549
3.09058	0.625
3.12576	0.669
3.16093	0.67
3.19611	0.649
3.23128	0.683
3.26646	0.64
3.30164	0.616
3.33681	0.656
3.37199	0.348
3.40717	0.523
3.44234	0.534
3.47752	0.523
3.51269	0.73
3.54787	0.733
3.58305	0.76
3.61822	0.768
3.6534	0.774
3.68857	0.775
3.72375	0.779
3.75893	0.782
3.7941	0.782
3.82928	0.784
3.86446	0.788
3.89963	0.789
3.93481	0.789
3.96998	0.795
4.00516	0.798
4.04034	0.798
4.07551	0.8
4.11069	0.8
4.14586	0.8
4.18104	0.802
4.21622	0.802
4.25139	0.802
4.28657	0.802
4.32175	0.803
4.35692	0.803
4.3921	0.805
4.42727	0.807
4.46245	0.809
4.49763	0.809
4.5328	0.809
4.56798	0.809
4.60315	0.81
4.63833	0.81
4.67351	0.81
4.70868	0.812
4.74386	0.814
4.77904	0.807
4.81421	0.802
4.84939	0.8
4.88456	0.802
4.91974	0.805
4.95492	0.81
4.99009	0.812
5.02527	0.812
5.06044	0.81
5.09562	0.795
5.1308	0.798
5.16597	0.807
5.20115	0.81
5.23633	0.81
5.2715	0.809
5.30668	0.805
5.34185	0.803
5.37703	0.802
5.41221	0.802
5.44738	0.805
5.48256	0.802
5.51773	0.791
5.55291	0.782
5.58809	0.77
5.62326	0.747
5.65844	0.707
5.69362	0.688
5.72879	0.607
5.76397	0.341
5.79914	0.007
5.83432	0.338
5.8695	0.639
5.90467	0.651
5.93985	0.665
5.97502	0.679
6.0102	0.649
6.04538	0.598
6.08055	0.49
6.11573	0.278
6.15091	0.026
6.18608	0.019
6.22126	0.145
6.25643	0.108
6.29161	0.075
6.32679	0.042
6.36196	0.108
6.39714	0.259
6.43231	0.486
6.46749	0.539
6.50267	0.562
6.53784	0.507
6.57302	0.485
6.6082	0.567
6.64337	0.649
6.67855	0.605
6.71372	0.586
6.7489	0.339
6.78408	0.448
6.81925	0.385
6.85443	0.507
6.8896	0.364
6.92478	0.443
6.95996	0.357
6.99513	0.586
7.03031	0.555
7.06549	0.732
7.10066	0.739
7.13584	0.74
7.17101	0.737
7.20619	0.693
7.24137	0.546
7.27654	0.53
7.31172	0.621
7.3469	0.549
7.38207	0.437
7.41725	0.572
7.45242	0.672
7.4876	0.707
7.52278	0.707
7.55795	0.704
7.59313	0.683
7.6283	0.621
7.66348	0.593
7.69866	0.605
7.73383	0.549
7.76901	0.53
7.80419	0.495
7.83936	0.465
7.87454	0.388
7.90971	0.246
7.94489	0.143
7.98007	0.103
8.01524	0.238
8.05042	0.432
8.08559	0.483
8.12077	0.507
8.15595	0.611
8.19112	0.658
8.2263	0.66
8.26148	0.619
8.29665	0.506
8.33183	0.309
8.367	0.217
8.40218	0.355
8.43736	0.406
8.47253	0.276
8.50771	0.297
8.54288	0.255
8.57806	0.197
8.61324	0.404
8.64841	0.542
8.68359	0.621
8.71877	0.67
8.75394	0.7
8.78912	0.709
8.82429	0.725
8.85947	0.725
8.89465	0.723
8.92982	0.688
8.965	0.628
9.00017	0.607
9.03535	0.67
9.07053	0.732
9.1057	0.751
9.14088	0.754
9.17606	0.742
9.21123	0.667
9.24641	0.677
9.28158	0.728
9.31676	0.705
9.35194	0.656
9.38711	0.684
9.42229	0.709
9.45746	0.704
9.49264	0.66
9.52782	0.702
9.56299	0.712
9.59817	0.723
9.63335	0.723
9.66852	0.656
9.7037	0.628
9.73887	0.647
9.77405	0.716
9.80923	0.753
9.8444	0.774
9.87958	0.786
9.91475	0.793
9.94993	0.788
9.98511	0.791
10.0203	0.796
10.0555	0.796
10.0906	0.774
10.1258	0.723
10.161	0.64
10.1962	0.705
10.2313	0.76
10.2665	0.793
10.3017	0.802
10.3369	0.807
10.372	0.81
10.4072	0.812
10.4424	0.814
10.4776	0.809
10.5127	0.816
10.5479	0.823
10.5831	0.83
10.6183	0.83
10.6535	0.828
10.6886	0.828
10.7238	0.824
10.759	0.824
10.7942	0.826
10.8293	0.831
10.8645	0.831
10.8997	0.831
10.9349	0.826
10.97	0.821
11.0052	0.826
11.0404	0.833
11.0756	0.835
11.1107	0.831
11.1459	0.831
11.1811	0.824
11.2163	0.807
11.2514	0.754
11.2866	0.667
11.3218	0.653
11.357	0.719
11.3922	0.781
11.4273	0.809
11.4625	0.824
11.4977	0.833
11.5329	0.835
11.568	0.844
11.6032	0.844
11.6384	0.844
11.6736	0.844
11.7087	0.844
11.7439	0.844
11.7791	0.844
11.8143	0.84
11.8494	0.837
11.8846	0.809
11.9198	0.795
11.955	0.819
11.9901	0.835
12.0253	0.838
12.0605	0.842
12.0957	0.838
12.1309	0.837
12.166	0.838
12.2012	0.84
12.2364	0.842
12.2716	0.844
12.3067	0.842
12.3419	0.842
12.3771	0.842
12.4123	0.842
12.4474	0.842
12.4826	0.842
12.5178	0.842
12.553	0.842
12.5881	0.842
12.6233	0.842
12.6585	0.842
12.6937	0.84
12.7288	0.833
12.764	0.824
12.7992	0.807
12.8344	0.802
12.8696	0.802
12.9047	0.807
12.9399	0.812
12.9751	0.812
13.0103	0.81
13.0454	0.796
13.0806	0.772
13.1158	0.718
13.151	0.646
13.1861	0.649
13.2213	0.679
13.2565	0.686
13.2917	0.688
13.3268	0.663
13.362	0.623
13.3972	0.581
13.4324	0.572
13.4675	0.563
13.5027	0.532
13.5379	0.516
13.5731	0.502
13.6083	0.499
13.6434	0.565
13.6786	0.64
13.7138	0.683
13.749	0.704
13.7841	0.711
13.8193	0.711
13.8545	0.709
13.8897	0.702
13.9248	0.693
13.96	0.683
13.9952	0.676
14.0304	0.665
14.0655	0.653
14.1007	0.626
14.1359	0.6
14.1711	0.549
14.2062	0.495
14.2414	0.411
14.2766	0.362
14.3118	0.338
14.347	0.299
14.3821	0.283
14.4173	0.32
14.4525	0.399
14.4877	0.485
14.5228	0.527
14.558	0.539
14.5932	0.542
14.6284	0.541
14.6635	0.532
14.6987	0.52
14.7339	0.518
14.7691	0.504
14.8042	0.504
14.8394	0.497
14.8746	0.493
14.9098	0.49
14.9449	0.49
14.9801	0.497
15.0153	0.504
15.0505	0.504
15.0856	0.504
15.1208	0.504
15.156	0.506
15.1912	0.509
15.2264	0.513
15.2615	0.518
15.2967	0.523
15.3319	0.527
15.3671	0.532
15.4022	0.537
15.4374	0.542
15.4726	0.546
15.5078	0.551
15.5429	0.556
15.5781	0.565
15.6133	0.565
15.6485	0.565
15.6836	0.569
15.7188	0.574
15.754	0.577
15.7892	0.577
15.8243	0.579
15.8595	0.579
15.8947	0.581
15.9299	0.581
15.9651	0.579
16.0002	0.577
