Infrared Spectrum: O-NITRO CARBANILIC ACID, n-OCTYL ESTER
Formula: C15 H22 N2 O4
CAS: 92700-70-4
State: SOLID (1.5 mg / 100 mg KBr)
Melting point: 42-43 C
Class: COBLENTZ
Instrument: Not specified, most likely a grating spectrometer.
Sampling: TRANSMISSION
Resolution: 4
Origin: CITRUS EXPERIMENT STATION, UNIVERSITY OF FLORIDA (G. EDWARDS)
MICROMETERS	TRANSMITTANCE
2.02	0.741
2.05316	0.75
2.08632	0.758
2.11947	0.765
2.15263	0.77
2.18579	0.769
2.21895	0.766
2.25211	0.765
2.28527	0.768
2.31842	0.776
2.35158	0.777
2.38474	0.788
2.4179	0.792
2.45106	0.798
2.48421	0.8
2.51737	0.802
2.55053	0.808
2.58369	0.818
2.61685	0.822
2.65001	0.832
2.68316	0.832
2.71632	0.832
2.74948	0.836
2.78264	0.84
2.8158	0.83
2.84895	0.821
2.88211	0.809
2.91527	0.809
2.94843	0.781
2.98159	0.455
3.01474	0.757
3.0479	0.814
3.08106	0.841
3.11422	0.84
3.14738	0.846
3.18054	0.849
3.21369	0.829
3.24685	0.837
3.28001	0.84
3.31317	0.836
3.34633	0.725
3.37948	0.396
3.41264	0.311
3.4458	0.613
3.47896	0.512
3.51212	0.701
3.54528	0.826
3.57843	0.84
3.61159	0.852
3.64475	0.865
3.67791	0.873
3.71107	0.877
3.74422	0.878
3.77738	0.878
3.81054	0.88
3.8437	0.882
3.87686	0.885
3.91002	0.896
3.94317	0.91
3.97633	0.909
4.00949	0.906
4.04265	0.901
4.07581	0.905
4.10896	0.906
4.14212	0.905
4.17528	0.904
4.20844	0.901
4.2416	0.905
4.27476	0.916
4.30791	0.918
4.34107	0.92
4.37423	0.918
4.40739	0.92
4.44055	0.916
4.4737	0.913
4.50686	0.913
4.54002	0.916
4.57318	0.925
4.60634	0.92
4.63949	0.918
4.67265	0.924
4.70581	0.93
4.73897	0.932
4.77213	0.933
4.80529	0.937
4.83844	0.938
4.8716	0.937
4.90476	0.934
4.93792	0.932
4.97108	0.932
5.00423	0.93
5.03739	0.929
5.07055	0.929
5.10371	0.929
5.13687	0.929
5.17003	0.929
5.20318	0.932
5.23634	0.934
5.2695	0.933
5.30266	0.933
5.33582	0.933
5.36897	0.93
5.40213	0.926
5.43529	0.925
5.46845	0.888
5.50161	0.908
5.53477	0.885
5.56792	0.876
5.60108	0.872
5.63424	0.82
5.6674	0.728
5.70056	0.19
5.73371	0.322
5.76687	0.657
5.80003	0.769
5.83319	0.84
5.86635	0.85
5.89951	0.864
5.93266	0.858
5.96582	0.854
5.99898	0.845
6.03214	0.825
6.0653	0.82
6.09845	0.801
6.13161	0.764
6.16477	0.58
6.19793	0.201
6.23109	0.44
6.26424	0.541
6.2974	0.197
6.33056	0.527
6.36372	0.76
6.39688	0.691
6.43004	0.499
6.46319	0.535
6.49635	0.64
6.52951	0.46
6.56267	0.154
6.59583	0.097
6.62898	0.109
6.66214	0.346
6.6953	0.44
6.72846	0.387
6.76162	0.511
6.79478	0.525
6.82793	0.486
6.86109	0.327
6.89425	0.48
6.92741	0.33
6.96057	0.28
6.99372	0.411
7.02688	0.536
7.06004	0.656
7.0932	0.704
7.12636	0.731
7.15952	0.731
7.19267	0.681
7.22583	0.607
7.25899	0.675
7.29215	0.705
7.32531	0.693
7.35846	0.665
7.39162	0.541
7.42478	0.316
7.45794	0.051
7.4911	0.035
7.52426	0.229
7.55741	0.346
7.59057	0.463
7.62373	0.46
7.65689	0.539
7.69005	0.572
7.7232	0.584
7.75636	0.572
7.78952	0.509
7.82268	0.352
7.85584	0.351
7.88899	0.371
7.92215	0.316
7.95531	0.438
7.98847	0.241
8.02163	0.03
8.05479	0.045
8.08794	0.154
8.1211	0.282
8.15426	0.438
8.18742	0.531
8.22058	0.504
8.25373	0.376
8.28689	0.101
8.32005	0.147
8.35321	0.327
8.38637	0.486
8.41953	0.613
8.45268	0.684
8.48584	0.731
8.519	0.708
8.55216	0.652
8.58532	0.529
8.61847	0.399
8.65163	0.604
8.68479	0.687
8.71795	0.455
8.75111	0.592
8.78427	0.753
8.81742	0.798
8.85058	0.806
8.88374	0.816
8.9169	0.813
8.95006	0.802
8.98321	0.797
9.01637	0.809
9.04953	0.814
9.08269	0.804
9.11585	0.756
9.14901	0.564
9.18216	0.291
9.21532	0.467
9.24848	0.54
9.28164	0.628
9.3148	0.691
9.34795	0.693
9.38111	0.66
9.41427	0.612
9.44743	0.643
9.48059	0.577
9.51374	0.34
9.5469	0.492
9.58006	0.443
9.61322	0.537
9.64638	0.599
9.67954	0.703
9.71269	0.776
9.74585	0.817
9.77901	0.849
9.81217	0.862
9.84533	0.868
9.87848	0.869
9.91164	0.888
9.9448	0.897
9.97796	0.896
10.0111	0.889
10.0443	0.873
10.0774	0.801
10.1106	0.801
10.1438	0.877
10.1769	0.9
10.2101	0.896
10.2432	0.884
10.2764	0.854
10.3095	0.793
10.3427	0.632
10.3759	0.627
10.409	0.672
10.4422	0.764
10.4753	0.833
10.5085	0.85
10.5416	0.87
10.5748	0.874
10.608	0.884
10.6411	0.906
10.6743	0.916
10.7074	0.918
10.7406	0.917
10.7738	0.92
10.8069	0.926
10.8401	0.926
10.8732	0.926
10.9064	0.929
10.9395	0.932
10.9727	0.93
11.0059	0.932
11.039	0.934
11.0722	0.934
11.1053	0.93
11.1385	0.93
11.1717	0.926
11.2048	0.92
11.238	0.882
11.2711	0.888
11.3043	0.916
11.3374	0.924
11.3706	0.924
11.4038	0.921
11.4369	0.921
11.4701	0.893
11.5032	0.828
11.5364	0.721
11.5696	0.48
11.6027	0.541
11.6359	0.745
11.669	0.826
11.7022	0.841
11.7353	0.842
11.7685	0.84
11.8017	0.845
11.8348	0.832
11.868	0.806
11.9011	0.765
11.9343	0.727
11.9674	0.757
12.0006	0.8
12.0338	0.837
12.0669	0.852
12.1001	0.874
12.1332	0.901
12.1664	0.906
12.1996	0.913
12.2327	0.917
12.2659	0.916
12.299	0.914
12.3322	0.913
12.3653	0.918
12.3985	0.921
12.4317	0.92
12.4648	0.912
12.498	0.91
12.5311	0.906
12.5643	0.902
12.5975	0.876
12.6306	0.82
12.6638	0.685
12.6969	0.543
12.7301	0.693
12.7632	0.793
12.7964	0.834
12.8296	0.854
12.8627	0.865
12.8959	0.874
12.929	0.856
12.9622	0.834
12.9954	0.788
13.0285	0.691
13.0617	0.571
13.0948	0.587
13.128	0.707
13.1611	0.796
13.1943	0.814
13.2275	0.81
13.2606	0.719
13.2938	0.657
13.3269	0.739
13.3601	0.773
13.3933	0.729
13.4264	0.58
13.4596	0.335
13.4927	0.268
13.5259	0.463
13.559	0.62
13.5922	0.727
13.6254	0.77
13.6585	0.8
13.6917	0.802
13.7248	0.785
13.758	0.778
13.7911	0.764
13.8243	0.712
13.8575	0.641
13.8906	0.651
13.9238	0.739
13.9569	0.805
13.9901	0.826
14.0233	0.838
14.0564	0.844
14.0896	0.853
14.1227	0.854
14.1559	0.856
14.189	0.858
14.2222	0.854
14.2554	0.841
14.2885	0.837
14.3217	0.824
14.3548	0.814
14.388	0.805
14.4212	0.781
14.4543	0.757
14.4875	0.709
14.5206	0.693
14.5538	0.675
14.5869	0.671
14.6201	0.66
14.6533	0.636
14.6864	0.589
14.7196	0.568
14.7527	0.561
14.7859	0.599
14.8191	0.632
14.8522	0.653
14.8854	0.652
14.9185	0.643
14.9517	0.619
14.9848	0.631
15.018	0.655
