Infrared Spectrum: 9H-Purine-6(1H)-thione, 2-amino-9-benzyl-
Formula: C12 H11 N5 S
CAS: 92723-90-5
State: SOLID (0.5 mg / 650 mg KBr DISC)
Class: COBLENTZ III
Instrument: PERKIN-ELMER 21 (GRATING)
Instrument parameters: FILTER CHANGE ABOUT 1090 CM^-^1
Sampling: TRANSMISSION
Resolution: 2
Origin: SOUTHERN RESEARCH INSTITUTE
1/CM	TRANSMITTANCE
600	0.6912
609	0.6817
618	0.6683
627	0.6367
636	0.53
645	0.4874
654	0.4562
663	0.6556
672	0.6599
681	0.6374
690	0.5793
699	0.4159
708	0.4849
717	0.1907
726	0.238
735	0.5818
744	0.5919
753	0.5706
762	0.4491
771	0.4169
780	0.4692
789	0.6
798	0.6038
807	0.5686
816	0.5313
825	0.5446
834	0.5608
843	0.5108
852	0.4599
861	0.5739
870	0.5182
879	0.569
888	0.5532
897	0.5297
906	0.512
915	0.5039
924	0.4998
933	0.4627
942	0.3125
951	0.0987
960	0.1524
969	0.5269
978	0.5988
987	0.5901
996	0.5518
1005	0.4583
1014	0.5031
1023	0.5516
1032	0.5737
1041	0.572
1050	0.5644
1059	0.5448
1068	0.4491
1077	0.399
1086	0.4853
1095	0.506
1104	0.5122
1113	0.5097
1122	0.4982
1131	0.4773
1140	0.4534
1149	0.4164
1158	0.3712
1167	0.2722
1176	0.2169
1185	0.1272
1194	0.1672
1203	0.3481
1212	0.4285
1221	0.5682
1230	0.5747
1239	0.5766
1248	0.5696
1257	0.5633
1266	0.5517
1275	0.5284
1284	0.4882
1293	0.4742
1302	0.5002
1311	0.4781
1320	0.4633
1329	0.4411
1338	0.4182
1347	0.3594
1356	0.1943
1365	0.2119
1374	0.2724
1383	0.305
1392	0.1511
1401	0.2154
1410	0.4225
1419	0.4599
1428	0.4793
1437	0.4206
1446	0.4525
1455	0.3856
1464	0.478
1473	0.4603
1482	0.4418
1491	0.3082
1500	0.3315
1509	0.3468
1518	0.3266
1527	0.2797
1536	0.1527
1545	0.09
1554	0.0224
1563	0.021
1572	0.0082
1581	0.0106
1590	0.0163
1599	0.0609
1608	0.0626
1617	0.0117
1626	0.0319
1635	0.1718
1644	0.3116
1653	0.4141
1662	0.5094
1671	0.6054
1680	0.6558
1689	0.699
1698	0.7101
1707	0.6943
1716	0.694
1725	0.6743
1734	0.6791
1743	0.6987
1752	0.7029
1761	0.7032
1770	0.6978
1779	0.6824
1788	0.6754
1797	0.6718
1806	0.6699
1815	0.6666
1824	0.6627
1833	0.6582
1842	0.6531
1851	0.6472
1860	0.6415
1869	0.6352
1878	0.6306
1887	0.6307
1896	0.6305
1905	0.6301
1914	0.6291
1923	0.6268
1932	0.6179
1941	0.6151
1950	0.6136
1959	0.6115
1968	0.6092
1977	0.6072
1986	0.6051
1995	0.603
2004	0.6022
2013	0.6022
2022	0.6023
2031	0.6019
2040	0.6
2049	0.5973
2058	0.5942
2067	0.5905
2076	0.5871
2085	0.5844
2094	0.5814
2103	0.5781
2112	0.574
2121	0.5698
2130	0.5671
2139	0.5655
2148	0.5694
2157	0.5668
2166	0.564
2175	0.5624
2184	0.561
2193	0.5596
2202	0.5579
2211	0.556
2220	0.5531
2229	0.5504
2238	0.5477
2247	0.547
2256	0.5475
2265	0.5475
2274	0.5453
2283	0.5379
2292	0.5269
2301	0.5133
2310	0.5045
2319	0.5002
2328	0.4992
2337	0.501
2346	0.505
2355	0.509
2364	0.5112
2373	0.51
2382	0.5084
2391	0.5067
2400	0.5052
2409	0.5034
2418	0.501
2427	0.4987
2436	0.4979
2445	0.4968
2454	0.492
2463	0.4876
2472	0.4832
2481	0.479
2490	0.4751
2499	0.472
2508	0.4675
2517	0.4642
2526	0.4661
2535	0.4669
2544	0.4638
2553	0.4604
2562	0.4569
2571	0.4533
2580	0.4496
2589	0.4465
2598	0.443
2607	0.439
2616	0.4347
2625	0.4288
2634	0.424
2643	0.418
2652	0.407
2661	0.4031
2670	0.3893
2679	0.3792
2688	0.3729
2697	0.3667
2706	0.3625
2715	0.3586
2724	0.3554
2733	0.3525
2742	0.3509
2751	0.3494
2760	0.345
2769	0.3403
2778	0.3307
2787	0.3206
2796	0.3109
2805	0.3036
2814	0.2963
2823	0.2908
2832	0.2854
2841	0.2801
2850	0.2751
2859	0.2686
2868	0.2614
2877	0.2508
2886	0.2398
2895	0.2372
2904	0.2417
2913	0.2431
2922	0.2501
2931	0.2602
2940	0.2584
2949	0.2555
2958	0.2497
2967	0.2418
2976	0.2329
2985	0.2218
2994	0.2136
3003	0.2068
3012	0.2008
3021	0.1977
3030	0.1888
3039	0.1806
3048	0.1722
3057	0.1682
3066	0.1706
3075	0.1743
3084	0.173
3093	0.1724
3102	0.1756
3111	0.1752
3120	0.161
3129	0.1646
3138	0.1789
3147	0.1963
3156	0.1976
3165	0.196
3174	0.1828
3183	0.1739
3192	0.1692
3201	0.172
3210	0.179
3219	0.1772
3228	0.1734
3237	0.167
3246	0.1533
3255	0.1419
3264	0.1378
3273	0.1368
3282	0.1501
3291	0.1869
3300	0.2303
3309	0.273
3318	0.3086
3327	0.3458
3336	0.3674
3345	0.3756
3354	0.378
3363	0.3789
3372	0.3783
3381	0.3688
3390	0.3557
3399	0.3329
3408	0.2851
3417	0.2286
3426	0.1872
3435	0.1934
3444	0.3271
3453	0.3835
3462	0.3949
3471	0.4122
3480	0.4177
3489	0.4223
3498	0.4268
3507	0.4311
3516	0.4353
3525	0.4382
3534	0.4408
3543	0.443
3552	0.4451
3561	0.447
3570	0.449
3579	0.4502
3588	0.4513
3597	0.4532
3606	0.4554
3615	0.4576
3624	0.4598
3633	0.4621
3642	0.4644
3651	0.4668
3660	0.4695
3669	0.4685
3678	0.462
3687	0.4573
3696	0.455
3705	0.4514
3714	0.4547
3723	0.4582
3732	0.4506
3741	0.4484
3750	0.4485
3759	0.4513
3768	0.4544
3777	0.4508
3786	0.4454
3795	0.4414
3804	0.4375
3813	0.4389
3822	0.4384
3831	0.4307
3840	0.4284
3849	0.4278
3858	0.4286
3867	0.432
3876	0.4299
3885	0.4333
3894	0.4337
3903	0.43
3912	0.4305
3921	0.4287
3930	0.4209
3939	0.4247
3948	0.4271
3957	0.4264
3966	0.4256
3975	0.4252
3984	0.424
3993	0.4217
