Infrared Spectrum: P-METHOXY CARBANILIC ACID, n-HEPTYL ESTER
Formula: C15 H23 N O3
CAS: 92727-15-6
State: SOLID (1.6 mg / 200 mg KBr)
Class: COBLENTZ
Instrument: Not specified, most likely a grating spectrometer.
Sampling: TRANSMISSION
Resolution: 4
Origin: CITRUS EXPERIMENT STATION, UNIVERSITY OF FLORIDA (G. EDWARDS)
MICROMETERS	TRANSMITTANCE
2.066	0.944
2.09924	0.944
2.13248	0.944
2.16572	0.942
2.19895	0.941
2.23219	0.941
2.26543	0.942
2.29867	0.937
2.33191	0.936
2.36515	0.934
2.39838	0.934
2.43162	0.93
2.46486	0.929
2.4981	0.928
2.53134	0.929
2.56458	0.932
2.59782	0.929
2.63105	0.929
2.66429	0.928
2.69753	0.929
2.73077	0.92
2.76401	0.917
2.79725	0.913
2.83048	0.906
2.86372	0.89
2.89696	0.877
2.9302	0.852
2.96344	0.704
2.99668	0.381
3.02992	0.805
3.06315	0.885
3.09639	0.91
3.12963	0.924
3.16287	0.91
3.19611	0.913
3.22935	0.897
3.26259	0.893
3.29582	0.88
3.32906	0.84
3.3623	0.63
3.39554	0.577
3.42878	0.743
3.46202	0.67
3.49525	0.763
3.52849	0.884
3.56173	0.898
3.59497	0.902
3.62821	0.908
3.66145	0.913
3.69469	0.91
3.72792	0.916
3.76116	0.91
3.7944	0.914
3.82764	0.912
3.86088	0.914
3.89412	0.912
3.92735	0.916
3.96059	0.916
3.99383	0.912
4.02707	0.91
4.06031	0.916
4.09355	0.92
4.12679	0.916
4.16002	0.912
4.19326	0.905
4.2265	0.908
4.25974	0.912
4.29298	0.914
4.32622	0.914
4.35945	0.91
4.39269	0.912
4.42593	0.918
4.45917	0.916
4.49241	0.912
4.52565	0.914
4.55889	0.912
4.59212	0.912
4.62536	0.918
4.6586	0.914
4.69184	0.912
4.72508	0.91
4.75832	0.912
4.79155	0.909
4.82479	0.908
4.85803	0.909
4.89127	0.909
4.92451	0.909
4.95775	0.909
4.99099	0.912
5.02422	0.909
5.05746	0.91
5.0907	0.912
5.12394	0.91
5.15718	0.909
5.19042	0.908
5.22365	0.905
5.25689	0.901
5.29013	0.893
5.32337	0.902
5.35661	0.894
5.38985	0.9
5.42309	0.9
5.45632	0.901
5.48956	0.894
5.5228	0.882
5.55604	0.877
5.58928	0.869
5.62252	0.864
5.65576	0.845
5.68899	0.817
5.72223	0.787
5.75547	0.747
5.78871	0.595
5.82195	0.408
5.85519	0.348
5.88842	0.522
5.92166	0.761
5.9549	0.801
5.98814	0.817
6.02138	0.844
6.05462	0.843
6.08786	0.832
6.12109	0.803
6.15433	0.788
6.18757	0.734
6.22081	0.587
6.25405	0.796
6.28729	0.829
6.32052	0.801
6.35376	0.724
6.387	0.553
6.42024	0.41
6.45348	0.281
6.48672	0.361
6.51996	0.48
6.55319	0.498
6.58643	0.706
6.61967	0.765
6.65291	0.783
6.68615	0.763
6.71939	0.639
6.75262	0.671
6.78586	0.606
6.8191	0.756
6.85234	0.755
6.88558	0.753
6.91882	0.805
6.95206	0.813
6.98529	0.716
7.01853	0.676
7.05177	0.78
7.08501	0.851
7.11825	0.856
7.15149	0.851
7.18472	0.857
7.21796	0.847
7.2512	0.845
7.28444	0.845
7.31768	0.837
7.35092	0.827
7.38416	0.811
7.41739	0.788
7.45063	0.753
7.48387	0.683
7.51711	0.69
7.55035	0.706
7.58359	0.474
7.61683	0.484
7.65006	0.466
7.6833	0.541
7.71654	0.692
7.74978	0.746
7.78302	0.712
7.81626	0.579
7.84949	0.601
7.88273	0.485
7.91597	0.506
7.94921	0.607
7.98245	0.587
8.01569	0.541
8.04893	0.381
8.08216	0.26
8.1154	0.242
8.14864	0.311
8.18188	0.412
8.21512	0.598
8.24836	0.703
8.28159	0.761
8.31483	0.784
8.34807	0.791
8.38131	0.65
8.41455	0.706
8.44779	0.723
8.48103	0.642
8.51426	0.801
8.5475	0.833
8.58074	0.847
8.61398	0.853
8.64722	0.855
8.68046	0.863
8.71369	0.864
8.74693	0.863
8.78017	0.856
8.81341	0.836
8.84665	0.849
8.87989	0.852
8.91313	0.841
8.94636	0.795
8.9796	0.7
9.01284	0.797
9.04608	0.845
9.07932	0.823
9.11256	0.769
9.14579	0.627
9.17903	0.514
9.21227	0.63
9.24551	0.752
9.27875	0.792
9.31199	0.781
9.34523	0.731
9.37846	0.795
9.4117	0.851
9.44494	0.855
9.47818	0.845
9.51142	0.812
9.54466	0.767
9.57789	0.718
9.61113	0.581
9.64437	0.456
9.67761	0.541
9.71085	0.687
9.74409	0.781
9.77733	0.811
9.81056	0.833
9.8438	0.825
9.87704	0.841
9.91028	0.869
9.94352	0.875
9.97676	0.886
10.01	0.889
10.0432	0.889
10.0765	0.889
10.1097	0.889
10.1429	0.89
10.1762	0.89
10.2094	0.882
10.2427	0.871
10.2759	0.843
10.3091	0.863
10.3424	0.889
10.3756	0.893
10.4089	0.898
10.4421	0.898
10.4753	0.893
10.5086	0.902
10.5418	0.905
10.575	0.905
10.6083	0.906
10.6415	0.909
10.6748	0.908
10.708	0.91
10.7412	0.912
10.7745	0.905
10.8077	0.905
10.841	0.906
10.8742	0.908
10.9074	0.908
10.9407	0.909
10.9739	0.91
11.0071	0.91
11.0404	0.91
11.0736	0.912
11.1069	0.912
11.1401	0.908
11.1733	0.905
11.2066	0.906
11.2398	0.912
11.2731	0.912
11.3063	0.91
11.3395	0.909
11.3728	0.909
11.406	0.91
11.4392	0.91
11.4725	0.902
11.5057	0.886
11.539	0.884
11.5722	0.88
11.6054	0.893
11.6387	0.904
11.6719	0.904
11.7052	0.906
11.7384	0.906
11.7716	0.906
11.8049	0.906
11.8381	0.9
11.8713	0.892
11.9046	0.881
11.9378	0.88
11.9711	0.855
12.0043	0.82
12.0375	0.724
12.0708	0.57
12.104	0.496
12.1373	0.654
12.1705	0.784
12.2037	0.848
12.237	0.851
12.2702	0.823
12.3034	0.728
12.3367	0.736
12.3699	0.82
12.4032	0.875
12.4364	0.894
12.4696	0.905
12.5029	0.906
12.5361	0.909
12.5694	0.909
12.6026	0.912
12.6358	0.912
12.6691	0.898
12.7023	0.89
12.7355	0.873
12.7688	0.864
12.802	0.852
12.8353	0.825
12.8685	0.793
12.9017	0.8
12.935	0.811
12.9682	0.808
13.0015	0.804
13.0347	0.827
13.0679	0.877
13.1012	0.904
13.1344	0.908
13.1677	0.914
13.2009	0.918
13.2341	0.92
13.2674	0.904
13.3006	0.893
13.3338	0.864
13.3671	0.821
13.4003	0.76
13.4336	0.763
13.4668	0.788
13.5	0.84
13.5333	0.873
13.5665	0.901
13.5998	0.898
13.633	0.893
13.6662	0.875
13.6995	0.848
13.7327	0.799
13.7659	0.797
13.7992	0.836
13.8324	0.894
13.8657	0.914
13.8989	0.929
13.9321	0.941
13.9654	0.942
13.9986	0.941
14.0319	0.942
14.0651	0.94
14.0983	0.94
14.1316	0.941
14.1648	0.941
14.198	0.94
14.2313	0.938
14.2645	0.934
14.2978	0.925
14.331	0.912
14.3642	0.904
14.3975	0.896
14.4307	0.884
14.464	0.864
14.4972	0.857
14.5304	0.863
14.5637	0.863
14.5969	0.859
14.6301	0.852
14.6634	0.845
14.6966	0.844
14.7299	0.844
14.7631	0.844
14.7963	0.836
14.8296	0.831
14.8628	0.812
14.8961	0.78
14.9293	0.751
14.9625	0.761
14.9958	0.771
15.029	0.769
