Infrared Spectrum: 6-METHYL - 2,4-DIOXO-5- HEPTENOIC ACID, ETHYL ESTER
Formula: C10 H14 O4
CAS: 92736-02-2
State: SOLUTION (10% IN CCl4 FOR 5000-1350 CM^-^1, 10% IN CS2 FOR 1350-625 CM^-^1)
Class: COBLENTZ
Instrument: Not specified, most likely a prism, grating, or hybrid spectrometer.
Sampling: TRANSMISSION
Path length: 0.01 CM, 0.01 CM
Resolution: 4
Origin: DOW CHEMICAL COMPANY
MICROMETERS	TRANSMITTANCE
2.047	0.864
2.08615	0.867
2.12531	0.869
2.16446	0.869
2.20361	0.862
2.24276	0.854
2.28192	0.857
2.32107	0.864
2.36022	0.861
2.39938	0.864
2.43853	0.867
2.47768	0.872
2.51683	0.877
2.55599	0.879
2.59514	0.877
2.63429	0.879
2.67345	0.88
2.7126	0.874
2.75175	0.872
2.79091	0.861
2.83006	0.849
2.86921	0.823
2.90836	0.816
2.94752	0.813
2.98667	0.784
3.02582	0.807
3.06498	0.812
3.10413	0.803
3.14328	0.803
3.18243	0.803
3.22159	0.785
3.26074	0.784
3.29989	0.748
3.33905	0.442
3.3782	0.462
3.41735	0.594
3.4565	0.702
3.49566	0.787
3.53481	0.821
3.57396	0.841
3.61312	0.851
3.65227	0.864
3.69142	0.866
3.73057	0.869
3.76973	0.869
3.80888	0.87
3.84803	0.872
3.88719	0.877
3.92634	0.88
3.96549	0.88
4.00464	0.883
4.0438	0.887
4.08295	0.893
4.1221	0.893
4.16126	0.893
4.20041	0.888
4.23956	0.883
4.27872	0.879
4.31787	0.88
4.35702	0.88
4.39617	0.888
4.43533	0.892
4.47448	0.9
4.51363	0.901
4.55279	0.903
4.59194	0.906
4.63109	0.905
4.67024	0.903
4.7094	0.901
4.74855	0.9
4.7877	0.9
4.82686	0.901
4.86601	0.903
4.90516	0.903
4.94431	0.903
4.98347	0.901
5.02262	0.901
5.06177	0.9
5.10093	0.901
5.14008	0.903
5.17923	0.901
5.21838	0.897
5.25754	0.892
5.29669	0.887
5.33584	0.879
5.375	0.874
5.41415	0.869
5.4533	0.859
5.49245	0.833
5.53161	0.812
5.57076	0.781
5.60991	0.733
5.64907	0.586
5.68822	0.318
5.72737	0.058
5.76653	0.083
5.80568	0.194
5.84483	0.269
5.88398	0.176
5.92314	0.031
5.96229	0.057
6.00144	0.253
6.0406	0.411
6.07975	0.557
6.1189	0.588
6.15805	0.379
6.19721	0.034
6.23636	0.253
6.27551	0.468
6.31467	0.488
6.35382	0.504
6.39297	0.482
6.43212	0.45
6.47128	0.491
6.51043	0.562
6.54958	0.593
6.58874	0.645
6.62789	0.707
6.66704	0.727
6.70619	0.676
6.74535	0.565
6.7845	0.421
6.82365	0.459
6.86281	0.511
6.90196	0.504
6.94111	0.594
6.98027	0.584
7.01942	0.446
7.05857	0.215
7.09772	0.129
7.13688	0.165
7.17603	0.135
7.21518	0.127
7.25434	0.124
7.29349	0.145
7.33264	0.401
7.37179	0.627
7.41095	0.683
7.4501	0.656
7.48925	0.553
7.52841	0.383
7.56756	0.406
7.60671	0.452
7.64586	0.401
7.68502	0.349
7.72417	0.336
7.76332	0.256
7.80248	0.114
7.84163	0.027
7.88078	0.019
7.91993	0.019
7.95909	0.006
7.99824	0.008
8.03739	0.009
8.07655	0.006
8.1157	0.004
8.15485	0.035
8.194	0.13
8.23316	0.225
8.27231	0.302
8.31146	0.465
8.35062	0.521
8.38977	0.534
8.42892	0.486
8.46808	0.343
8.50723	0.258
8.54638	0.39
8.58553	0.516
8.62469	0.584
8.66384	0.63
8.70299	0.658
8.74215	0.66
8.7813	0.64
8.82045	0.596
8.8596	0.465
8.89876	0.326
8.93791	0.186
8.97706	0.137
9.01622	0.212
9.05537	0.374
9.09452	0.415
9.13367	0.382
9.17283	0.325
9.21198	0.147
9.25113	0.065
9.29029	0.114
9.32944	0.279
9.36859	0.54
9.40774	0.66
9.4469	0.702
9.48605	0.717
9.5252	0.712
9.56436	0.679
9.60351	0.65
9.64266	0.558
9.68181	0.426
9.72097	0.272
9.76012	0.187
9.79927	0.215
9.83843	0.303
9.87758	0.46
9.91673	0.593
9.95589	0.66
9.99504	0.674
10.0342	0.635
10.0733	0.509
10.1125	0.328
10.1516	0.251
10.1908	0.486
10.23	0.704
10.2691	0.761
10.3083	0.782
10.3474	0.784
10.3866	0.759
10.4257	0.696
10.4649	0.625
10.504	0.611
10.5432	0.697
10.5823	0.771
10.6215	0.8
10.6606	0.813
10.6998	0.821
10.7389	0.82
10.7781	0.821
10.8172	0.816
10.8564	0.813
10.8956	0.802
10.9347	0.794
10.9739	0.771
11.013	0.72
11.0522	0.679
11.0913	0.681
11.1305	0.705
11.1696	0.697
11.2088	0.65
11.2479	0.549
11.2871	0.446
11.3262	0.392
11.3654	0.334
11.4045	0.246
11.4437	0.197
11.4828	0.254
11.522	0.348
11.5612	0.354
11.6003	0.316
11.6395	0.269
11.6786	0.323
11.7178	0.442
11.7569	0.527
11.7961	0.565
11.8352	0.593
11.8744	0.593
11.9135	0.555
11.9527	0.517
11.9918	0.498
12.031	0.524
12.0701	0.55
12.1093	0.563
12.1484	0.55
12.1876	0.54
12.2268	0.56
12.2659	0.596
12.3051	0.622
12.3442	0.632
12.3834	0.637
12.4225	0.629
12.4617	0.612
12.5008	0.598
12.54	0.578
12.5791	0.565
12.6183	0.549
12.6574	0.521
12.6966	0.488
12.7357	0.441
12.7749	0.37
12.814	0.279
12.8532	0.217
12.8924	0.225
12.9315	0.32
12.9707	0.457
13.0098	0.547
13.049	0.604
13.0881	0.643
13.1273	0.668
13.1664	0.683
13.2056	0.691
13.2447	0.696
13.2839	0.694
13.323	0.689
13.3622	0.679
13.4013	0.668
13.4405	0.658
13.4796	0.65
13.5188	0.653
13.558	0.668
13.5971	0.684
13.6363	0.696
13.6754	0.7
13.7146	0.704
13.7537	0.704
13.7929	0.702
13.832	0.699
13.8712	0.697
13.9103	0.692
13.9495	0.691
13.9886	0.684
14.0278	0.679
14.0669	0.671
14.1061	0.666
14.1452	0.658
14.1844	0.65
14.2236	0.642
14.2627	0.637
14.3019	0.635
14.341	0.633
14.3802	0.632
14.4193	0.629
14.4585	0.622
14.4976	0.617
14.5368	0.609
14.5759	0.606
14.6151	0.599
14.6542	0.591
14.6934	0.583
14.7325	0.571
14.7717	0.565
14.8108	0.557
14.85	0.549
14.8892	0.539
14.9283	0.537
14.9675	0.529
15.0066	0.526
15.0458	0.514
15.0849	0.503
15.1241	0.491
15.1632	0.482
15.2024	0.467
15.2415	0.455
15.2807	0.444
15.3198	0.437
15.359	0.434
15.3981	0.433
15.4373	0.424
15.4764	0.416
15.5156	0.411
15.5547	0.403
15.5939	0.397
15.6331	0.392
15.6722	0.385
15.7114	0.379
15.7505	0.37
15.7897	0.362
15.8288	0.357
15.868	0.361
