Infrared Spectrum: 6-Methyl-2-heptanone
Formula: C 8 H 16 O
CAS: 928-68-7
State: gas
Instrument: HP-GC/MS/IRD
Origin: NIST Mass Spectrometry Data Center
1/CM	ABSORBANCE
550	0.0004394
562	0.0002392
574	0.0002236
586	0.0004251
598	0.0003874
610	0.0002743
622	0.0001417
634	0.0001222
646	0.0001326
658	4.16e-05
670	1.56e-05
682	0.0001794
694	9.62e-05
706	0.0001963
718	0.0002821
730	0.0002951
742	0.000143
754	0.000104
766	0.0001534
778	0.0001742
790	0.0001521
802	0.0001677
814	0.0001495
826	8.71e-05
838	9.75e-05
850	0.0001482
862	0.0001183
874	0.0001508
886	0.0001716
898	0.0001898
910	0.0003042
922	0.0004706
934	0.0006097
946	0.0006045
958	0.000572
970	0.0004901
982	0.0004719
994	0.0004277
1006	0.0003601
1018	0.0003094
1030	0.000299
1042	0.0002756
1054	0.0002483
1066	0.0001807
1078	0.0002379
1090	0.0002626
1102	0.0005031
1114	0.0006643
1126	0.0008385
1138	0.0012038
1150	0.002262
1162	0.0038181
1174	0.003029
1186	0.0017225
1198	0.0014989
1210	0.0016393
1222	0.0017264
1234	0.0014365
1246	0.0011661
1258	0.0008905
1270	0.0007904
1282	0.0008177
1294	0.0009685
1306	0.00104
1318	0.0011193
1330	0.0013988
1342	0.0021554
1354	0.0037986
1366	0.0043147
1378	0.0028873
1390	0.0020189
1402	0.001417
1414	0.0013299
1426	0.001365
1438	0.0013715
1450	0.0016367
1462	0.0019318
1474	0.0016445
1486	0.0009425
1498	0.0005642
1510	0.0003523
1522	0.0002717
1534	0.0003003
1546	0.0002925
1558	0.000182
1570	0.000208
1582	0.0002509
1594	0.0002002
1606	0.0001833
1618	0.0001898
1630	0.0001911
1642	0.0002327
1654	0.0002756
1666	0.0004589
1678	0.000754
1690	0.0014001
1702	0.0025428
1714	0.0049257
1726	0.008034
1738	0.0074685
1750	0.0039468
1762	0.0017342
1774	0.0008333
1786	0.0004238
1798	0.0002106
1810	0.0001755
1822	0.0001339
1834	0.0001092
1846	6.63e-05
1858	8.71e-05
1870	7.93e-05
1882	6.76e-05
1894	5.07e-05
1906	5.33e-05
1918	2.99e-05
1930	4.94e-05
1942	3.25e-05
1954	5.33e-05
1966	2.86e-05
1978	4.42e-05
1990	2.73e-05
2002	2.08e-05
2014	3.64e-05
2026	2.99e-05
2038	2.21e-05
2050	7.8e-06
2062	3.51e-05
2074	3.9e-05
2086	2.6e-05
2098	5.07e-05
2110	2.6e-05
2122	2.08e-05
2134	4.55e-05
2146	3.64e-05
2158	2.21e-05
2170	1.43e-05
2182	4.03e-05
2194	3.38e-05
2206	1.95e-05
2218	1.82e-05
2230	1.3e-05
2242	2.86e-05
2254	1.82e-05
2266	5.72e-05
2278	5.2e-05
2290	6.37e-05
2302	5.2e-05
2314	4.94e-05
2326	2.99e-05
2338	6.63e-05
2350	3.77e-05
2362	4.55e-05
2374	3.38e-05
2386	3.9e-05
2398	2.73e-05
2410	4.81e-05
2422	2.08e-05
2434	3.64e-05
2446	1.3e-05
2458	3.25e-05
2470	4.55e-05
2482	3.9e-05
2494	1.95e-05
2506	5.72e-05
2518	4.94e-05
2530	6.11e-05
2542	4.94e-05
2554	2.21e-05
2566	6.37e-05
2578	6.24e-05
2590	5.2e-05
2602	8.58e-05
2614	7.67e-05
2626	0.0001196
2638	0.0001274
2650	0.0001157
2662	8.71e-05
2674	0.0001196
2686	0.0001105
2698	0.0001118
2710	0.0001586
2722	0.0001768
2734	0.0002301
2746	0.0002197
2758	0.0002314
2770	0.0002405
2782	0.0003016
2794	0.0003939
2806	0.0005031
2818	0.00065
2830	0.0009256
2842	0.0014482
2854	0.0023114
2866	0.0033566
2878	0.0047749
2890	0.0055393
2902	0.0062699
2914	0.007085
2926	0.0075322
2938	0.008593
2950	0.0099866
2962	0.013
2974	0.0096109
2986	0.0034281
2998	0.0016822
3010	0.0012792
3022	0.0008697
3034	0.0006201
3046	0.0005707
3058	0.0005252
3070	0.0004602
3082	0.000377
3094	0.0003822
3106	0.0003055
3118	0.0002366
3130	0.0001833
3142	0.0001755
3154	0.000208
3166	0.0002223
3178	0.0001703
3190	0.0001703
3202	0.0001469
3214	7.41e-05
3226	0.0001079
3238	4.81e-05
3250	5.46e-05
3262	3.38e-05
3274	5.59e-05
3286	8.45e-05
3298	1.56e-05
3310	1.82e-05
3322	8.84e-05
3334	0.0001222
3346	7.15e-05
3358	8.58e-05
3370	8.84e-05
3382	0.000169
3394	0.0001131
3406	0.0001599
3418	0.0001638
3430	0.00026
3442	0.0002015
3454	0.0002301
3466	0.0001898
3478	9.36e-05
3490	0.00013
3502	0.0001105
3514	9.23e-05
3526	5.07e-05
3538	2.99e-05
3550	6.63e-05
3562	7.15e-05
3574	7.02e-05
3586	0.0001092
3598	9.1e-05
3610	3.25e-05
3622	0.0001105
3634	0.0001092
3646	9.88e-05
3658	0.0001014
3670	0
3682	8.58e-05
3694	9.62e-05
3706	6.37e-05
3718	0.0001066
3730	5.72e-05
3742	2.08e-05
3754	4.03e-05
3766	7.54e-05
3778	0.000117
3790	0.0001339
3802	9.88e-05
3814	9.36e-05
3826	9.23e-05
3838	7.28e-05
