Infrared Spectrum: 5-Hexyn-1-ol
Formula: C 6 H 10 O
CAS: 928-90-5
State: gas
Instrument: HP-GC/MS/IRD
Origin: NIST Mass Spectrometry Data Center
1/CM	ABSORBANCE
550	0.001116
562	0.0005352
574	0.000492
586	0.0005064
598	0.001092
610	0.0031824
622	0.0095304
634	0.024
646	0.0123
658	0.003396
670	0.0009672
682	0.000348
694	0.0001296
706	6.96e-05
718	7.68e-05
730	6.72e-05
742	0.0001344
754	0.0001008
766	8.88e-05
778	7.2e-05
790	0.0001152
802	0.000156
814	0.000132
826	0.0001632
838	0.0002472
850	0.0003456
862	0.0003624
874	0.0003696
886	0.0003984
898	0.0006096
910	0.0009648
922	0.0013992
934	0.0017592
946	0.0019608
958	0.0021384
970	0.0023952
982	0.0028728
994	0.003156
1006	0.003432
1018	0.0048576
1030	0.0072576
1042	0.0086184
1054	0.008868
1066	0.0084096
1078	0.005964
1090	0.003264
1102	0.0017904
1114	0.0012528
1126	0.001176
1138	0.001212
1150	0.0012456
1162	0.0012576
1174	0.0013224
1186	0.0014112
1198	0.0016032
1210	0.0017976
1222	0.0023424
1234	0.0039672
1246	0.0064656
1258	0.0061128
1270	0.0033
1282	0.0022656
1294	0.0020088
1306	0.001992
1318	0.002124
1330	0.0022104
1342	0.0021456
1354	0.0019968
1366	0.0020016
1378	0.0022536
1390	0.0023208
1402	0.0018912
1414	0.0014784
1426	0.0017064
1438	0.0023112
1450	0.0023232
1462	0.0017376
1474	0.00132
1486	0.0009168
1498	0.000492
1510	0.0002664
1522	0.0001968
1534	0.0001272
1546	8.88e-05
1558	7.44e-05
1570	4.8e-05
1582	3.36e-05
1594	1.92e-05
1606	2.4e-06
1618	1.68e-05
1630	2.4e-06
1642	9.6e-06
1654	9.6e-06
1666	3.12e-05
1678	9.6e-06
1690	3.84e-05
1702	3.12e-05
1714	3.84e-05
1726	4.32e-05
1738	2.88e-05
1750	3.36e-05
1762	2.16e-05
1774	6.72e-05
1786	4.56e-05
1798	4.8e-05
1810	4.32e-05
1822	5.52e-05
1834	3.84e-05
1846	4.32e-05
1858	5.28e-05
1870	4.32e-05
1882	4.56e-05
1894	6.24e-05
1906	6.72e-05
1918	5.04e-05
1930	4.8e-05
1942	6e-05
1954	4.8e-05
1966	6.24e-05
1978	5.76e-05
1990	8.16e-05
2002	7.44e-05
2014	8.16e-05
2026	0.0001056
2038	0.0001128
2050	0.0001272
2062	0.0001248
2074	0.0001488
2086	0.0002568
2098	0.0004872
2110	0.0008736
2122	0.0009768
2134	0.0005376
2146	0.0001608
2158	9.12e-05
2170	6.48e-05
2182	6.24e-05
2194	6.96e-05
2206	3.84e-05
2218	5.04e-05
2230	3.84e-05
2242	4.32e-05
2254	5.52e-05
2266	5.76e-05
2278	5.76e-05
2290	4.08e-05
2302	5.28e-05
2314	4.32e-05
2326	4.56e-05
2338	3.84e-05
2350	4.56e-05
2362	7.2e-05
2374	6.96e-05
2386	8.16e-05
2398	7.44e-05
2410	6.48e-05
2422	8.16e-05
2434	5.76e-05
2446	6.96e-05
2458	4.8e-05
2470	4.32e-05
2482	4.56e-05
2494	4.08e-05
2506	6.96e-05
2518	5.04e-05
2530	5.28e-05
2542	5.52e-05
2554	5.28e-05
2566	2.88e-05
2578	6.72e-05
2590	8.16e-05
2602	7.44e-05
2614	0.000108
2626	0.0001224
2638	0.0001632
2650	0.0002304
2662	0.0002856
2674	0.000312
2686	0.0003624
2698	0.0004128
2710	0.0003792
2722	0.0004176
2734	0.0004752
2746	0.0005472
2758	0.0006096
2770	0.0006768
2782	0.0007416
2794	0.0008304
2806	0.0009792
2818	0.0012072
2830	0.001752
2842	0.0027528
2854	0.0043752
2866	0.0064056
2878	0.0080424
2890	0.0083136
2902	0.0084768
2914	0.0104736
2926	0.0139416
2938	0.0168816
2950	0.0166224
2962	0.0119064
2974	0.006348
2986	0.0028944
2998	0.0013944
3010	0.0008328
3022	0.0005616
3034	0.000408
3046	0.0002904
3058	0.0002136
3070	0.000192
3082	0.000168
3094	0.0001272
3106	9.12e-05
3118	8.64e-05
3130	6.48e-05
3142	8.4e-05
3154	4.32e-05
3166	4.56e-05
3178	5.04e-05
3190	3.12e-05
3202	6.24e-05
3214	7.92e-05
3226	8.88e-05
3238	0.0001272
3250	0.000228
3262	0.000396
3274	0.0007608
3286	0.0013368
3298	0.0028872
3310	0.0044424
3322	0.007848
3334	0.0074376
3346	0.002472
3358	0.0010584
3370	0.0004872
3382	0.0002544
3394	0.0001824
3406	0.000216
3418	0.000168
3430	0.0001776
3442	0.0001752
3454	0.0002016
3466	0.0002088
3478	0.0001992
3490	0.00018
3502	0.0001776
3514	0.0001896
3526	0.000132
3538	0.0001536
3550	0.0001464
3562	0.0001728
3574	0.0002664
3586	0.0002856
3598	0.0003696
3610	0.0005256
3622	0.0006456
3634	0.0008568
3646	0.0013296
3658	0.0022152
3670	0.0027624
3682	0.0020184
3694	0.0009192
3706	0.0004632
3718	0.0003456
3730	0.0002808
3742	0.0002088
3754	0.0002064
3766	0.000216
3778	0.0001944
3790	0.000204
3802	0.0001752
3814	0.0002376
3826	0.0001968
3838	0.0002352
