Infrared Spectrum: 2-Chloroethyl thiocyanate
Formula: C 3 H 4 Cl N S
CAS: 928-57-4
State: gas
Origin: EPA-IR VAPOR PHASE LIBRARY
1/CM	ABSORBANCE
549.9	0.001148
559.547	0.0012332
569.193	0.0011986
578.84	0.0013137
588.486	0.0016269
598.133	0.002244
607.779	0.003044
617.426	0.003604
627.072	0.004184
636.719	0.004694
646.365	0.005904
656.012	0.009404
665.658	0.014694
675.305	0.021444
684.951	0.032424
694.598	0.047194
704.245	0.041804
713.891	0.017604
723.538	0.005714
733.184	0.007224
742.831	0.014584
752.477	0.023624
762.124	0.023314
771.77	0.012064
781.417	0.006464
791.063	0.004614
800.71	0.003294
810.356	0.003024
820.003	0.003064
829.649	0.003234
839.296	0.003594
848.943	0.004824
858.589	0.010964
868.236	0.017964
877.882	0.016034
887.529	0.008904
897.175	0.004774
906.822	0.004524
916.468	0.005544
926.115	0.006724
935.761	0.006254
945.408	0.004814
955.054	0.003314
964.701	0.002424
974.347	0.002254
983.994	0.002204
993.64	0.002264
1003.29	0.002664
1012.93	0.003604
1022.58	0.004384
1032.23	0.004774
1041.87	0.003904
1051.52	0.001984
1061.17	0.0012539
1070.81	0.0009623
1080.46	0.00084311
1090.11	0.0009691
1099.75	0.0012681
1109.4	0.0016949
1119.05	0.002894
1128.69	0.003834
1138.34	0.003894
1147.99	0.003004
1157.63	0.002214
1167.28	0.001984
1176.92	0.0018043
1186.57	0.002304
1196.22	0.004004
1205.86	0.010404
1215.51	0.027344
1225.16	0.028184
1234.8	0.013694
1244.45	0.006804
1254.1	0.008924
1263.74	0.017694
1273.39	0.032134
1283.04	0.035824
1292.68	0.030134
1302.33	0.019214
1311.98	0.014214
1321.62	0.008494
1331.27	0.005254
1340.92	0.003554
1350.56	0.002624
1360.21	0.002204
1369.86	0.002074
1379.5	0.002134
1389.15	0.002764
1398.79	0.004944
1408.44	0.008454
1418.09	0.011804
1427.73	0.014094
1437.38	0.015214
1447.03	0.013784
1456.67	0.011004
1466.32	0.005954
1475.97	0.003054
1485.61	0.0016573
1495.26	0.0014027
1504.91	0.0012851
1514.55	0.0012705
1524.2	0.0011853
1533.85	0.00102
1543.49	0.00087914
1553.14	0.000648
1562.79	0.000576
1572.43	0.000573
1582.08	0.000536
1591.73	0.000444
1601.37	0.000443
1611.02	0.000378
1620.67	0.00033
1630.31	0.000301
1639.96	0.000446
1649.6	0.000368
1659.25	0.000321
1668.9	0.000399
1678.54	0.000424
1688.19	0.000468
1697.84	0.000453
1707.48	0.000471
1717.13	0.00037
1726.78	0.000404
1736.42	0.000331
1746.07	0.000394
1755.72	0.000366
1765.36	0.000446
1775.01	0.000428
1784.66	0.000358
1794.3	0.000406
1803.95	0.000358
1813.6	0.000341
1823.24	0.00034
1832.89	0.000348
1842.54	0.00041
1852.18	0.000402
1861.83	0.000428
1871.47	0.000476
1881.12	0.000431
1890.77	0.000445
1900.41	0.000451
1910.06	0.000514
1919.71	0.00048
1929.35	0.000524
1939	0.0004
1948.65	0.000419
1958.29	0.00046
1967.94	0.000529
1977.59	0.000549
1987.23	0.000636
1996.88	0.0007313
2006.53	0.0007576
2016.17	0.0007635
2025.82	0.0007529
2035.47	0.000671
2045.11	0.000567
2054.76	0.000571
2064.41	0.000631
2074.05	0.000684
2083.7	0.000709
2093.35	0.0007484
2102.99	0.0009404
2112.64	0.0010621
2122.28	0.0013845
2131.93	0.002104
2141.58	0.004344
2151.22	0.010354
2160.87	0.017514
2170.52	0.016914
2180.16	0.007634
2189.81	0.002514
2199.46	0.0013269
2209.1	0.0010123
2218.75	0.00089735
2228.4	0.00081767
2238.04	0.000651
2247.69	0.000672
2257.34	0.000646
2266.98	0.00069
2276.63	0.0007279
2286.28	0.00084108
2295.92	0.0007817
2305.57	0.00085114
2315.22	0.0008131
2324.86	0.00086336
2334.51	0.000805
2344.16	0.000664
2353.8	0.000648
2363.45	0.0008084
2373.09	0.000828356
2382.74	0.0009559
2392.39	0.0010167
2402.03	0.0009927
2411.68	0.00089781
2421.33	0.00092308
2430.97	0.0009537
2440.62	0.0009263
2450.27	0.0008817
2459.91	0.00087204
2469.56	0.000635
2479.21	0.000678
2488.85	0.000625
2498.5	0.000687
2508.15	0.000667
2517.79	0.0007763
2527.44	0.00085818
2537.09	0.0010244
2546.73	0.0012237
2556.38	0.0011281
2566.03	0.00081703
2575.67	0.000723
2585.32	0.000585
2594.96	0.000597
2604.61	0.0007686
2614.26	0.0007457
2623.9	0.0007448
2633.55	0.000671
2643.2	0.000662
2652.84	0.000685
2662.49	0.000581
2672.14	0.000633
2681.78	0.000648
2691.43	0.000609
2701.08	0.000619
2710.72	0.000622
2720.37	0.0007669
2730.02	0.0007954
2739.66	0.0009458
2749.31	0.0009739
2758.96	0.0009437
2768.6	0.000642
2778.25	0.000573
2787.9	0.0007884
2797.54	0.0007347
2807.19	0.0010287
2816.84	0.0015092
2826.48	0.0017682
2836.13	0.002314
2845.77	0.002584
2855.42	0.002854
2865.07	0.003094
2874.71	0.003114
2884.36	0.003054
2894.01	0.002644
2903.65	0.002014
2913.3	0.002184
2922.95	0.003464
2932.59	0.005834
2942.24	0.009434
2951.89	0.012954
2961.53	0.014694
2971.18	0.014874
2980.83	0.012584
2990.47	0.009014
3000.12	0.005924
3009.77	0.004074
3019.41	0.002984
3029.06	0.002044
3038.71	0.0015591
3048.35	0.0012806
3058	0.0009414
3067.64	0.000711
3077.29	0.000606
3086.94	0.000332
3096.58	0.000654
3106.23	0.000344
3115.88	0.00033
3125.52	0.00035
3135.17	0.000352
3144.82	0.000371
3154.46	0.000196
3164.11	0.000307
3173.76	0.000292
3183.4	0.000145
3193.05	0.000364
3202.7	0.000202
3212.34	0.000277
3221.99	0.00033
3231.64	0.000296
3241.28	0.000226
3250.93	0.000412
3260.58	0.000366
3270.22	0.00018
3279.87	0.000396
3289.52	8.7e-05
3299.16	0.000209
3308.81	0.000154
3318.45	0.000345
3328.1	0.000129
3337.75	0.000274
3347.39	0.000319
3357.04	0.000416
3366.69	0.00024
3376.33	0.000369
3385.98	0.000427
3395.63	0.000335
3405.27	0.000371
3414.92	0.000229
3424.57	0.000334
3434.21	0.00051
3443.86	0.000266
3453.51	0.000246
3463.15	0.00051
3472.8	0.000416
3482.45	0.000205
3492.09	0.000443
3501.74	0
3511.39	0.000334
3521.03	0.000233
3530.68	0.000307
3540.33	0.000337
3549.97	0.000248
3559.62	0.000508
3569.26	0.000504
3578.91	0.000362
3588.56	0.000491
3598.2	0.000459
3607.85	0.000471
3617.5	0.000716
3627.14	0.000485
3636.79	0.000572
3646.44	0.000546
3656.08	0.000573
3665.73	0.000643
3675.38	0.000557
3685.02	0.000607
3694.67	0.000543
3704.32	0.000484
3713.96	0.000695
3723.61	0.0007307
3733.26	0.0007454
3742.9	0.000591
3752.55	0.0007621
3762.2	0.0007626
3771.84	0.000655
3781.49	0.000646
3791.13	0.00056
3800.78	0.000653
3810.43	0.000722
3820.07	0.000622
3829.72	0.000672
3839.37	0.000614
3849.01	0.0007271
3858.66	0.000667
3868.31	0.000614
3877.95	0.00057
3887.6	0.0007757
3897.25	0.000529
3906.89	0.000733
3916.54	0.0007
3926.19	0.000692
3935.83	0.000689
3945.48	0.00081463
3955.13	0.0007376
3964.77	0.000709
3974.42	0.00065
3984.07	0.00088848
3993.71	0.0008088
