Infrared Spectrum: HEXYLTRICHLOROSILANE
Formula: C6 H13 Cl3 Si
CAS: 928-65-4
State: SOLID (BETWEEN SALTS)
Class: COBLENTZ
Instrument: BECKMAN IR-4 (HYBRID PRISM-GRATING)
Sampling: TRANSMISSION
Resolution: 4
Origin: PENINSULAR CHEMRESEARCH, INC., GAINESVILLE, FLORIDA
MICROMETERS	TRANSMITTANCE
2.025	0.891
2.06	0.892
2.095	0.894
2.13	0.894
2.165	0.896
2.2	0.896
2.235	0.89
2.27	0.866
2.305	0.865
2.34	0.875
2.375	0.871
2.41	0.88
2.445	0.881
2.48	0.89
2.515	0.882
2.55	0.889
2.585	0.892
2.62	0.891
2.655	0.886
2.69	0.889
2.725	0.886
2.76	0.884
2.795	0.884
2.83	0.881
2.865	0.872
2.9	0.869
2.935	0.867
2.97	0.869
3.005	0.867
3.04	0.867
3.075	0.866
3.11	0.862
3.145	0.866
3.18	0.851
3.215	0.851
3.25	0.844
3.285	0.82
3.32	0.754
3.355	0.492
3.39	0.179
3.425	0.182
3.46	0.36
3.495	0.289
3.53	0.715
3.565	0.807
3.6	0.846
3.635	0.856
3.67	0.866
3.705	0.861
3.74	0.87
3.775	0.879
3.81	0.881
3.845	0.891
3.88	0.891
3.915	0.896
3.95	0.9
3.985	0.906
4.02	0.91
4.055	0.907
4.09	0.91
4.125	0.907
4.16	0.907
4.195	0.895
4.23	0.911
4.265	0.918
4.3	0.928
4.335	0.922
4.37	0.916
4.405	0.913
4.44	0.916
4.475	0.917
4.51	0.921
4.545	0.921
4.58	0.918
4.615	0.917
4.65	0.917
4.685	0.921
4.72	0.918
4.755	0.918
4.79	0.918
4.825	0.918
4.86	0.917
4.895	0.918
4.93	0.922
4.965	0.918
5	0.92
5.035	0.925
5.07	0.93
5.105	0.92
5.14	0.927
5.175	0.92
5.21	0.928
5.245	0.926
5.28	0.927
5.315	0.921
5.35	0.93
5.385	0.918
5.42	0.927
5.455	0.918
5.49	0.933
5.525	0.92
5.56	0.926
5.595	0.917
5.63	0.92
5.665	0.908
5.7	0.9
5.735	0.891
5.77	0.896
5.805	0.89
5.84	0.901
5.875	0.905
5.91	0.903
5.945	0.917
5.98	0.918
6.015	0.912
6.05	0.917
6.085	0.91
6.12	0.913
6.155	0.911
6.19	0.92
6.225	0.917
6.26	0.916
6.295	0.917
6.33	0.905
6.365	0.907
6.4	0.906
6.435	0.907
6.47	0.891
6.505	0.892
6.54	0.886
6.575	0.882
6.61	0.879
6.645	0.874
6.68	0.864
6.715	0.854
6.75	0.824
6.785	0.553
6.82	0.458
6.855	0.532
6.89	0.605
6.925	0.715
6.96	0.794
6.995	0.837
7.03	0.837
7.065	0.829
7.1	0.774
7.135	0.729
7.17	0.751
7.205	0.758
7.24	0.684
7.275	0.754
7.31	0.807
7.345	0.837
7.38	0.814
7.415	0.8
7.45	0.829
7.485	0.864
7.52	0.875
7.555	0.862
7.59	0.855
7.625	0.845
7.66	0.845
7.695	0.839
7.73	0.839
7.765	0.846
7.8	0.862
7.835	0.872
7.87	0.867
7.905	0.857
7.94	0.84
7.975	0.826
8.01	0.854
8.045	0.85
8.08	0.835
8.115	0.84
8.15	0.851
8.185	0.865
8.22	0.867
8.255	0.864
8.29	0.847
8.325	0.805
8.36	0.723
8.395	0.654
8.43	0.639
8.465	0.704
8.5	0.754
8.535	0.744
8.57	0.729
8.605	0.75
8.64	0.746
8.675	0.735
8.71	0.729
8.745	0.709
8.78	0.704
8.815	0.687
8.85	0.67
8.885	0.655
8.92	0.648
8.955	0.642
8.99	0.615
9.025	0.567
9.06	0.517
9.095	0.527
9.13	0.564
9.165	0.588
9.2	0.603
9.235	0.603
9.27	0.596
9.305	0.593
9.34	0.603
9.375	0.615
9.41	0.618
9.445	0.634
9.48	0.652
9.515	0.652
9.55	0.643
9.585	0.639
9.62	0.654
9.655	0.679
9.69	0.695
9.725	0.699
9.76	0.706
9.795	0.715
9.83	0.725
9.865	0.731
9.9	0.725
9.935	0.699
9.97	0.663
10.005	0.648
10.04	0.625
10.075	0.632
10.11	0.682
10.145	0.724
10.18	0.75
10.215	0.769
10.25	0.776
10.285	0.768
10.32	0.739
10.355	0.7
10.39	0.658
10.425	0.657
10.46	0.687
10.495	0.71
10.53	0.736
10.565	0.79
10.6	0.826
10.635	0.844
10.67	0.861
10.705	0.867
10.74	0.87
10.775	0.872
10.81	0.871
10.845	0.869
10.88	0.865
10.915	0.86
10.95	0.851
10.985	0.84
11.02	0.821
11.055	0.812
11.09	0.807
11.125	0.809
11.16	0.804
11.195	0.79
11.23	0.765
11.265	0.775
11.3	0.795
11.335	0.809
11.37	0.811
11.405	0.811
11.44	0.814
11.475	0.829
11.51	0.839
11.545	0.841
11.58	0.839
11.615	0.835
11.65	0.83
11.685	0.822
11.72	0.804
11.755	0.785
11.79	0.771
11.825	0.768
11.86	0.77
11.895	0.775
11.93	0.769
11.965	0.765
12	0.783
12.035	0.799
12.07	0.814
12.105	0.829
12.14	0.831
12.175	0.832
12.21	0.831
12.245	0.821
12.28	0.816
12.315	0.809
12.35	0.799
12.385	0.785
12.42	0.763
12.455	0.735
12.49	0.7
12.525	0.657
12.56	0.632
12.595	0.63
12.63	0.64
12.665	0.644
12.7	0.634
12.735	0.618
12.77	0.598
12.805	0.576
12.84	0.531
12.875	0.482
12.91	0.456
12.945	0.445
12.98	0.426
13.015	0.385
13.05	0.342
13.085	0.298
13.12	0.283
13.155	0.268
13.19	0.28
13.225	0.295
13.26	0.31
13.295	0.345
13.33	0.401
13.365	0.47
13.4	0.504
13.435	0.531
13.47	0.532
13.505	0.518
13.54	0.501
13.575	0.478
13.61	0.457
13.645	0.461
13.68	0.468
13.715	0.475
13.75	0.473
13.785	0.467
13.82	0.461
13.855	0.463
13.89	0.472
13.925	0.478
13.96	0.491
13.995	0.498
14.03	0.493
14.065	0.482
14.1	0.46
14.135	0.436
14.17	0.413
14.205	0.386
14.24	0.357
14.275	0.319
14.31	0.285
14.345	0.236
14.38	0.187
14.415	0.138
14.45	0.11
14.485	0.113
14.52	0.137
14.555	0.18
14.59	0.233
14.625	0.299
14.66	0.367
14.695	0.43
14.73	0.483
14.765	0.519
14.8	0.543
14.835	0.562
14.87	0.569
14.905	0.572
14.94	0.571
14.975	0.567
15.01	0.566
