Infrared Spectrum: 2,6-Dimethyl-1,3,6-heptatriene
Formula: C 9 H 14
CAS: 928-67-6
State: gas
Instrument: HP-GC/MS/IRD
Origin: NIST Mass Spectrometry Data Center
1/CM	ABSORBANCE
550	0.0002051
562	0.0003269
574	0.0003899
586	0.0003815
598	0.0002296
610	9.31e-05
622	1.12e-05
634	8.26e-05
646	4.9e-06
658	3.85e-05
670	0.0001078
682	0.0002114
694	0.0001092
706	0.0001393
718	0.0001204
730	0.0001778
742	0.0001043
754	0.0001071
766	0.0001568
778	0.0002163
790	0.0002457
802	0.0003584
814	0.0004151
826	0.0004844
838	0.0007007
850	0.0010262
862	0.0017374
874	0.0035392
886	0.006601
898	0.0059346
910	0.0026271
922	0.0014077
934	0.0012278
946	0.001995
958	0.0035301
970	0.0034195
982	0.0017731
994	0.0008911
1006	0.0007924
1018	0.0008554
1030	0.0006083
1042	0.0003941
1054	0.0002604
1066	0.0002387
1078	0.0001932
1090	0.0001743
1102	0.0001953
1114	0.0001771
1126	0.0001498
1138	9.24e-05
1150	0.0001351
1162	0.0001799
1174	0.0002324
1186	0.0002457
1198	0.0002149
1210	0.0004788
1222	0.0006965
1234	0.000637
1246	0.0005684
1258	0.0006986
1270	0.0010171
1282	0.0008834
1294	0.0007021
1306	0.0007665
1318	0.0006279
1330	0.0005082
1342	0.0005558
1354	0.0007245
1366	0.0012313
1378	0.0020545
1390	0.0015904
1402	0.0009877
1414	0.0011235
1426	0.0016947
1438	0.0022498
1450	0.0024969
1462	0.0021189
1474	0.0011375
1486	0.0006111
1498	0.0004487
1510	0.0003409
1522	0.0003241
1534	0.0003101
1546	0.0003192
1558	0.0004347
1570	0.0005222
1582	0.0007028
1594	0.001141
1606	0.0015953
1618	0.0016331
1630	0.0018123
1642	0.0022946
1654	0.0019698
1666	0.0010059
1678	0.000476
1690	0.0002912
1702	0.0002366
1714	0.0002051
1726	0.0001701
1738	0.0002198
1750	0.000329
1762	0.0005264
1774	0.0008365
1786	0.000854
1798	0.0005698
1810	0.0003528
1822	0.000259
1834	0.0001862
1846	0.0001225
1858	0.0001099
1870	9.73e-05
1882	8.26e-05
1894	5.25e-05
1906	7.84e-05
1918	5.46e-05
1930	4.41e-05
1942	4.97e-05
1954	4.27e-05
1966	9.8e-06
1978	2.59e-05
1990	3.64e-05
2002	2.52e-05
2014	1.82e-05
2026	5.74e-05
2038	3.57e-05
2050	3.36e-05
2062	1.61e-05
2074	3.78e-05
2086	2.87e-05
2098	5.18e-05
2110	3.5e-05
2122	4.34e-05
2134	4.83e-05
2146	4.27e-05
2158	1.26e-05
2170	2.45e-05
2182	5.18e-05
2194	4.62e-05
2206	4.2e-05
2218	4.97e-05
2230	2.59e-05
2242	3.5e-05
2254	1.89e-05
2266	1.05e-05
2278	3.57e-05
2290	7e-07
2302	1.96e-05
2314	3.85e-05
2326	7.49e-05
2338	8.4e-05
2350	6.09e-05
2362	8.12e-05
2374	6.93e-05
2386	4.76e-05
2398	5.53e-05
2410	5.18e-05
2422	2.59e-05
2434	4.9e-05
2446	6.58e-05
2458	7.84e-05
2470	6.02e-05
2482	4.69e-05
2494	5.25e-05
2506	5.25e-05
2518	6.37e-05
2530	8.26e-05
2542	5.04e-05
2554	2.8e-05
2566	7e-05
2578	5.95e-05
2590	9.8e-05
2602	6.65e-05
2614	6.65e-05
2626	7.49e-05
2638	9.31e-05
2650	0.0001064
2662	0.0001029
2674	0.0001078
2686	0.0001232
2698	0.0001239
2710	0.0001624
2722	0.0001932
2734	0.000245
2746	0.0002464
2758	0.0002044
2770	0.0002331
2782	0.0002926
2794	0.0003794
2806	0.0004872
2818	0.0007749
2830	0.001162
2842	0.0014875
2854	0.0017444
2866	0.0020433
2878	0.0025928
2890	0.0033481
2902	0.0040278
2914	0.0046627
2926	0.005103
2938	0.0048412
2950	0.0044226
2962	0.0040558
2974	0.0056231
2986	0.0058947
2998	0.0039011
3010	0.0027552
3022	0.0026334
3034	0.0024451
3046	0.0017801
3058	0.0016506
3070	0.0025305
3082	0.0042644
3094	0.0033488
3106	0.0011137
3118	0.0005558
3130	0.000406
3142	0.0002443
3154	0.0002884
3166	0.0002625
3178	0.0001673
3190	0.0001267
3202	0.00014
3214	0.0001211
3226	0.0001078
3238	7.14e-05
3250	0.0001197
3262	9.52e-05
3274	7.49e-05
3286	7.28e-05
3298	4.13e-05
3310	0.0001141
3322	6.16e-05
3334	0.0001001
3346	0.0001239
3358	0.0001155
3370	7.35e-05
3382	6.72e-05
3394	8.82e-05
3406	0.0001239
3418	9.66e-05
3430	8.89e-05
3442	0.0001701
3454	5.74e-05
3466	8.33e-05
3478	1.33e-05
3490	0.0001015
3502	8.82e-05
3514	5.6e-05
3526	0.0001134
3538	6.93e-05
3550	4.13e-05
3562	4.2e-05
3574	7.28e-05
3586	7.35e-05
3598	7.49e-05
3610	0.0001001
3622	4.62e-05
3634	9.1e-06
3646	0.000126
3658	1.4e-06
3670	8.68e-05
3682	4.34e-05
3694	3.71e-05
3706	4.2e-05
3718	2.1e-06
3730	4.62e-05
3742	0.0001337
3754	5.04e-05
3766	3.43e-05
3778	0.0001015
3790	9.1e-05
3802	0.0001512
3814	6.09e-05
3826	4.27e-05
3838	0.00014
