Infrared Spectrum: trans-3-Hexen-1-ol
Formula: C 6 H 12 O
CAS: 928-97-2
State: gas
Instrument: HP-GC/MS/IRD
Origin: NIST Mass Spectrometry Data Center
1/CM	ABSORBANCE
550	0.0002052
562	0.0001194
574	8.58e-05
586	0.000174
598	8.82e-05
610	2.88e-05
622	0.0001662
634	5.4e-05
646	7.02e-05
658	3.42e-05
670	9.3e-05
682	4.74e-05
694	4.68e-05
706	2.4e-05
718	6.12e-05
730	5.58e-05
742	6.48e-05
754	0.0001074
766	0.0001056
778	0.0001236
790	0.000129
802	0.0001242
814	0.0002058
826	0.0002886
838	0.0002484
850	0.0003312
862	0.0004038
874	0.0004332
886	0.000471
898	0.0005118
910	0.0004758
922	0.0005394
934	0.0006924
946	0.001185
958	0.001875
970	0.0022326
982	0.0019452
994	0.001638
1006	0.001752
1018	0.0023196
1030	0.00363
1042	0.0046506
1054	0.003831
1066	0.002598
1078	0.0016968
1090	0.0010854
1102	0.0007704
1114	0.000576
1126	0.0005076
1138	0.0005034
1150	0.0005166
1162	0.0005796
1174	0.0005928
1186	0.000621
1198	0.0006012
1210	0.0005646
1222	0.0005454
1234	0.0004686
1246	0.0004644
1258	0.000483
1270	0.0005574
1282	0.0006432
1294	0.000708
1306	0.0007068
1318	0.0006402
1330	0.000699
1342	0.000735
1354	0.0007296
1366	0.0008622
1378	0.0010866
1390	0.0011226
1402	0.0008724
1414	0.0007284
1426	0.00075
1438	0.0007794
1450	0.000768
1462	0.0007704
1474	0.0006474
1486	0.0004236
1498	0.0002508
1510	0.0001968
1522	0.0001158
1534	0.0001014
1546	9.06e-05
1558	7.38e-05
1570	6.54e-05
1582	4.44e-05
1594	6.36e-05
1606	7.14e-05
1618	7.44e-05
1630	6.3e-05
1642	9.12e-05
1654	0.0001056
1666	7.98e-05
1678	9.36e-05
1690	0.0001164
1702	0.0002814
1714	0.0002964
1726	0.0001572
1738	0.0001584
1750	0.0001848
1762	0.0001386
1774	0.0001608
1786	0.0001338
1798	9.6e-05
1810	6.54e-05
1822	4.5e-05
1834	3.9e-05
1846	5.34e-05
1858	3.72e-05
1870	3e-05
1882	3.36e-05
1894	2.94e-05
1906	2.58e-05
1918	4.2e-05
1930	1.62e-05
1942	2.64e-05
1954	5.4e-06
1966	2.28e-05
1978	7.2e-06
1990	1.68e-05
2002	2.16e-05
2014	1.68e-05
2026	4.14e-05
2038	5.64e-05
2050	4.14e-05
2062	4.38e-05
2074	4.08e-05
2086	2.94e-05
2098	2.28e-05
2110	2.94e-05
2122	3.06e-05
2134	1.08e-05
2146	2.88e-05
2158	3.18e-05
2170	4.02e-05
2182	3.3e-05
2194	3e-05
2206	1.14e-05
2218	2.52e-05
2230	3.78e-05
2242	1.8e-05
2254	1.44e-05
2266	4.8e-06
2278	1.86e-05
2290	2.34e-05
2302	1.86e-05
2314	1.62e-05
2326	3.6e-05
2338	2.1e-05
2350	4.68e-05
2362	5.1e-05
2374	4.44e-05
2386	1.74e-05
2398	2.46e-05
2410	2.88e-05
2422	2.46e-05
2434	3.3e-05
2446	1.56e-05
2458	2.64e-05
2470	2.04e-05
2482	1.32e-05
2494	1.56e-05
2506	1.86e-05
2518	2.58e-05
2530	2.76e-05
2542	3.06e-05
2554	2.22e-05
2566	3.24e-05
2578	2.64e-05
2590	4.5e-05
2602	3.12e-05
2614	5.4e-05
2626	1.2e-06
2638	4.62e-05
2650	5.16e-05
2662	7.26e-05
2674	6.9e-05
2686	9.18e-05
2698	0.0001134
2710	0.0001542
2722	0.000198
2734	0.0002226
2746	0.0002532
2758	0.000261
2770	0.0002868
2782	0.0003312
2794	0.000357
2806	0.0004326
2818	0.0005982
2830	0.0008604
2842	0.0013176
2854	0.0019512
2866	0.0027186
2878	0.0035502
2890	0.0039156
2902	0.0041304
2914	0.004602
2926	0.0051438
2938	0.0054648
2950	0.0052314
2962	0.0054678
2974	0.0057774
2986	0.0038886
2998	0.002241
3010	0.0015786
3022	0.0012684
3034	0.0009834
3046	0.0007062
3058	0.0004518
3070	0.0003228
3082	0.0002508
3094	0.0002166
3106	0.0001356
3118	0.0001368
3130	0.0001032
3142	0.0001104
3154	7.74e-05
3166	9.6e-05
3178	6e-05
3190	5.4e-05
3202	8.58e-05
3214	6.06e-05
3226	2.76e-05
3238	2.4e-05
3250	1.38e-05
3262	3.9e-05
3274	4.14e-05
3286	1.8e-05
3298	2.28e-05
3310	5.22e-05
3322	5.82e-05
3334	4.8e-05
3346	7.8e-06
3358	7.08e-05
3370	1.32e-05
3382	6.78e-05
3394	5.76e-05
3406	6.12e-05
3418	7.62e-05
3430	9.06e-05
3442	7.44e-05
3454	6.3e-05
3466	6e-05
3478	6.06e-05
3490	8.4e-05
3502	0.0001236
3514	9.84e-05
3526	7.2e-05
3538	8.46e-05
3550	8.04e-05
3562	0.0001008
3574	9.48e-05
3586	0.0001284
3598	0.0002022
3610	0.0003078
3622	0.0004404
3634	0.000414
3646	0.0004866
3658	0.000717
3670	0.0008004
3682	0.000519
3694	0.0002832
3706	0.0001944
3718	0.0001632
3730	0.0001302
3742	0.0001686
3754	0.0001386
3766	0.000117
3778	0.0001002
3790	9.6e-05
3802	0.0001056
3814	0.0001074
3826	9.6e-05
3838	9.42e-05
