Infrared Spectrum: Glyoxylic acid semicarbazone
Formula: C3 H5 N3 O3
CAS: 928-73-4
State: SOLID (SPLIT MULL)
Class: COBLENTZ III
Instrument: DOW KBr FOREPRISM-GRATING
Instrument parameters: BLAZED AT 3.5, 12.0, 20.0 MICRON AND CHANGED AT 5.0, 7.5, 14.9 MICRON
Sampling: TRANSMISSION
Resolution: 2
Origin: DOW CHEMICAL COMPANY
1/CM	TRANSMITTANCE
3784	0.8143
3775	0.8184
3766	0.8235
3757	0.8286
3748	0.8328
3739	0.8366
3730	0.8404
3721	0.8442
3712	0.8478
3703	0.8505
3694	0.8511
3685	0.8509
3676	0.8555
3667	0.8625
3658	0.8685
3649	0.8697
3640	0.8695
3631	0.8691
3622	0.8685
3613	0.8678
3604	0.8675
3595	0.8673
3586	0.8668
3577	0.8632
3568	0.8634
3559	0.8682
3550	0.8715
3541	0.8738
3532	0.8752
3523	0.8756
3514	0.8741
3505	0.8683
3496	0.8584
3487	0.8354
3478	0.7886
3469	0.5686
3460	0.4537
3451	0.3846
3442	0.4231
3433	0.5782
3424	0.6226
3415	0.6425
3406	0.6557
3397	0.6675
3388	0.6772
3379	0.6862
3370	0.6911
3361	0.6892
3352	0.6785
3343	0.6561
3334	0.627
3325	0.567
3316	0.5148
3307	0.4786
3298	0.4432
3289	0.4214
3280	0.4255
3271	0.462
3262	0.4767
3253	0.4851
3244	0.4873
3235	0.4793
3226	0.4605
3217	0.4367
3208	0.416
3199	0.4023
3190	0.397
3181	0.3971
3172	0.4009
3163	0.411
3154	0.4247
3145	0.4429
3136	0.4604
3127	0.4816
3118	0.495
3109	0.5014
3100	0.5007
3091	0.4891
3082	0.4897
3073	0.4992
3064	0.5087
3055	0.5181
3046	0.527
3037	0.5331
3028	0.5357
3019	0.5291
3010	0.5227
3001	0.5239
2992	0.5277
2983	0.5333
2974	0.5383
2965	0.5425
2956	0.5434
2947	0.5398
2938	0.5376
2929	0.5365
2920	0.5369
2911	0.5408
2902	0.5469
2893	0.552
2884	0.5585
2875	0.5652
2866	0.5719
2857	0.5785
2848	0.5847
2839	0.5906
2830	0.5966
2821	0.6035
2812	0.6105
2803	0.6174
2794	0.624
2785	0.6262
2776	0.6252
2767	0.6275
2758	0.63
2749	0.6344
2740	0.6392
2731	0.6443
2722	0.6494
2713	0.655
2704	0.6605
2695	0.6649
2686	0.6682
2677	0.6708
2668	0.6736
2659	0.675
2650	0.6762
2641	0.6775
2632	0.6788
2623	0.6801
2614	0.6821
2605	0.6845
2596	0.6869
2587	0.6897
2578	0.6932
2569	0.6974
2560	0.7011
2551	0.7035
2542	0.7043
2533	0.7051
2524	0.706
2515	0.7069
2506	0.7087
2497	0.7105
2488	0.7125
2479	0.7146
2470	0.7168
2461	0.7191
2452	0.7215
2443	0.7238
2434	0.7261
2425	0.7293
2416	0.7326
2407	0.7358
2398	0.7389
2389	0.7421
2380	0.7455
2371	0.7496
2362	0.7534
2353	0.7567
2344	0.7605
2335	0.765
2326	0.7704
2317	0.7757
2308	0.781
2299	0.7862
2290	0.7915
2281	0.7965
2272	0.8011
2263	0.8058
2254	0.8121
2245	0.8217
2236	0.8331
2227	0.8444
2218	0.8553
2209	0.865
2200	0.8725
2191	0.8749
2182	0.8792
2173	0.8851
2164	0.8911
2155	0.8967
2146	0.9021
2137	0.9077
2128	0.9134
2119	0.9191
2110	0.9252
2101	0.9324
2092	0.939
2083	0.943
2074	0.9443
2065	0.9467
2056	0.953
2047	0.9564
2038	0.9594
2029	0.9624
2020	0.9641
2011	0.9663
2002	0.9768
1993	0.9399
1984	0.9733
1975	0.9763
1966	0.9787
1957	0.9807
1948	0.9763
1939	0.974
1930	0.9755
1921	0.9778
1912	0.9805
1903	0.9835
1894	0.9861
1885	0.9875
1876	0.9868
1867	0.9806
1858	0.9795
1849	0.9835
1840	0.9878
1831	0.9916
1822	0.9947
1813	0.9957
1804	0.9949
1795	0.9911
1786	0.9805
1777	0.9684
1768	0.9416
1759	0.911
1750	0.7964
1741	0.598
1732	0.4407
1723	0.321
1714	0.2159
1705	0.1642
1696	0.2282
1687	0.2954
1678	0.3098
1669	0.3019
1660	0.2774
1651	0.338
1642	0.4995
1633	0.6277
1624	0.636
1615	0.4424
1606	0.2847
1597	0.2628
1588	0.17
1579	0.1742
1570	0.2861
1561	0.3871
1552	0.4956
1543	0.576
1534	0.6024
1525	0.5906
1516	0.4565
1507	0.4028
1498	0.5255
1489	0.6188
1480	0.658
1471	0.6782
1462	0.6733
1453	0.6432
1444	0.5529
1435	0.4367
1426	0.3808
1417	0.3928
1408	0.4467
1399	0.4946
1390	0.5291
1381	0.5383
1372	0.5137
1363	0.3824
1354	0.2985
1345	0.3069
1336	0.4631
1327	0.5627
1318	0.451
1309	0.3062
1300	0.452
1291	0.5158
1282	0.5826
1273	0.6251
1264	0.61
1255	0.5806
1246	0.5464
1237	0.5003
1228	0.4298
1219	0.3859
1210	0.365
1201	0.3875
1192	0.3693
1183	0.2029
1174	0.1592
1165	0.2344
1156	0.3258
1147	0.4185
1138	0.5084
1129	0.5618
1120	0.5987
1111	0.6242
1102	0.6318
1093	0.6346
1084	0.6372
1075	0.6018
1066	0.5477
1057	0.6185
1048	0.7261
1039	0.7737
1030	0.7921
1021	0.7768
1012	0.7435
1003	0.7717
994	0.8308
985	0.8536
976	0.8545
967	0.844
958	0.8388
949	0.8293
940	0.7408
931	0.5543
922	0.6401
913	0.7289
904	0.7533
895	0.7911
886	0.8082
877	0.8132
868	0.8227
859	0.845
850	0.8649
841	0.8815
832	0.8946
823	0.906
814	0.9156
805	0.9183
796	0.9173
787	0.907
778	0.8885
769	0.8553
760	0.822
751	0.8289
742	0.7761
733	0.6575
724	0.6188
715	0.6637
706	0.7612
697	0.7604
688	0.7225
679	0.7182
670	0.7361
661	0.6096
652	0.6822
643	0.7872
634	0.8532
625	0.8803
616	0.8897
607	0.8868
598	0.8394
589	0.8034
580	0.7256
571	0.4874
562	0.6368
553	0.7882
544	0.8318
535	0.8528
526	0.8549
517	0.7136
508	0.7465
499	0.8247
490	0.8668
481	0.9067
472	0.94
463	0.9546
454	0.9548
