Infrared Spectrum: 3-Decanone
Formula: C 10 H 20 O
CAS: 928-80-3
State: gas
Instrument: HP-GC/MS/IRD
Origin: NIST Mass Spectrometry Data Center
1/CM	ABSORBANCE
550	0.0003784
562	0.0001806
574	0.0001118
586	0.0001462
598	0.0001419
610	0.0001892
622	0.0001849
634	0.0002107
646	0.0001075
658	4.73e-05
670	5.16e-05
682	5.59e-05
694	0.0001849
706	0.0003827
718	0.0006708
730	0.0006923
742	0.0005934
754	0.0005117
766	0.0005375
778	0.0005805
790	0.0004902
802	0.0005031
814	0.0005504
826	0.0005418
838	0.0005117
850	0.0004171
862	0.0004214
874	0.0004558
886	0.0005246
898	0.0006536
910	0.0007439
922	0.0010363
934	0.0014061
946	0.0018017
958	0.0020081
970	0.0019995
982	0.0017974
994	0.0015308
1006	0.0015781
1018	0.0017888
1030	0.0019436
1042	0.0021027
1054	0.0019823
1066	0.0017544
1078	0.0017931
1090	0.0024639
1102	0.0039087
1114	0.0042011
1126	0.0040506
1138	0.003913
1150	0.0037926
1162	0.0033454
1174	0.0027993
1186	0.0026058
1198	0.002451
1210	0.0019995
1222	0.0015695
1234	0.0014491
1246	0.0015308
1258	0.0017243
1270	0.0017888
1282	0.0017673
1294	0.0019221
1306	0.0022704
1318	0.0028896
1330	0.0038829
1342	0.0053148
1354	0.0060071
1366	0.0049149
1378	0.0039517
1390	0.0031992
1402	0.0026918
1414	0.0032637
1426	0.0037109
1438	0.0040549
1450	0.0052288
1462	0.0064285
1474	0.0045537
1486	0.0022059
1498	0.0012126
1510	0.0007611
1522	0.0005461
1534	0.0004128
1546	0.0003096
1558	0.0002752
1570	0.0002666
1582	0.0002623
1594	0.0002494
1606	0.0002623
1618	0.0002838
1630	0.0003569
1642	0.0004214
1654	0.0006063
1666	0.0008815
1678	0.0016082
1690	0.0031132
1702	0.0065446
1714	0.0136267
1726	0.0207776
1738	0.0147662
1750	0.0060802
1762	0.0025456
1774	0.0011782
1786	0.0006493
1798	0.0003784
1810	0.0002236
1822	0.0001677
1834	0.0001075
1846	9.89e-05
1858	6.88e-05
1870	3.87e-05
1882	5.59e-05
1894	6.45e-05
1906	3.87e-05
1918	2.58e-05
1930	2.15e-05
1942	3.44e-05
1954	1.72e-05
1966	0
1978	8.6e-06
1990	2.15e-05
2002	1.72e-05
2014	3.44e-05
2026	4.3e-05
2038	4.73e-05
2050	3.44e-05
2062	4.3e-05
2074	5.16e-05
2086	3.44e-05
2098	4.3e-06
2110	1.72e-05
2122	8.6e-06
2134	4.3e-05
2146	4.73e-05
2158	5.16e-05
2170	5.16e-05
2182	2.58e-05
2194	1.72e-05
2206	3.01e-05
2218	1.29e-05
2230	1.72e-05
2242	2.15e-05
2254	2.15e-05
2266	1.29e-05
2278	2.15e-05
2290	1.29e-05
2302	2.58e-05
2314	4.73e-05
2326	3.44e-05
2338	5.59e-05
2350	7.74e-05
2362	6.02e-05
2374	9.03e-05
2386	4.3e-05
2398	4.3e-05
2410	3.87e-05
2422	5.16e-05
2434	2.15e-05
2446	7.31e-05
2458	4.3e-05
2470	5.16e-05
2482	8.6e-06
2494	1.72e-05
2506	1.29e-05
2518	4.3e-05
2530	5.16e-05
2542	6.02e-05
2554	7.31e-05
2566	0.0001161
2578	0.0001032
2590	0.0001462
2602	0.0001591
2614	0.0001892
2626	0.0001892
2638	0.0002322
2650	0.0003053
2662	0.0003569
2674	0.0004343
2686	0.0004429
2698	0.0004515
2710	0.0004601
2722	0.0005289
2734	0.0006235
2746	0.0007439
2758	0.0007525
2770	0.0008342
2782	0.0010492
2794	0.0013674
2806	0.0018576
2818	0.0024897
2830	0.0034228
2842	0.0054739
2854	0.0108446
2866	0.0164475
2878	0.0166324
2890	0.0164217
2902	0.0186792
2914	0.0258172
2926	0.0379862
2938	0.0429312
2950	0.0353245
2962	0.028939
2974	0.0239854
2986	0.014878
2998	0.0082904
3010	0.0048117
3022	0.0030788
3034	0.0021672
3046	0.0015738
3058	0.0011567
3070	0.0009417
3082	0.0008041
3094	0.0007267
3106	0.000645
3118	0.0005332
3130	0.0004601
3142	0.00043
3154	0.0003698
3166	0.0003483
3178	0.0003182
3190	0.0002752
3202	0.0001677
3214	0.000129
3226	9.03e-05
3238	9.46e-05
3250	7.74e-05
3262	5.16e-05
3274	2.15e-05
3286	2.58e-05
3298	2.58e-05
3310	1.72e-05
3322	2.15e-05
3334	4.73e-05
3346	2.15e-05
3358	8.17e-05
3370	8.17e-05
3382	0.0001032
3394	0.0001376
3406	0.0002107
3418	0.000301
3430	0.0003999
3442	0.0004085
3454	0.0002881
3466	0.0001462
3478	9.89e-05
3490	6.88e-05
3502	3.01e-05
3514	3.44e-05
3526	1.72e-05
3538	4.73e-05
3550	3.87e-05
3562	3.87e-05
3574	4.3e-05
3586	3.01e-05
3598	3.87e-05
3610	5.16e-05
3622	7.31e-05
3634	9.89e-05
3646	6.02e-05
3658	9.03e-05
3670	0.0001075
3682	0.0001204
3694	0.000129
3706	9.89e-05
3718	0.0001075
3730	6.02e-05
3742	0.0001247
3754	0.0001591
3766	0.0001634
3778	0.0001247
3790	0.0001333
3802	0.000129
3814	0.0001161
3826	0.000172
3838	0.0001419
