Infrared Spectrum: 2-ETHYLIDENE-6-METHYL-5-HEPTENAL
Formula: C10 H16 O
CAS: 92835-06-8
State: (NEAT)
Class: COBLENTZ III
Instrument: UNICAM SP-200
Sampling: TRANSMISSION
Resolution: 4
Origin: BUSH BOAKE ALLEN LTD. VIA SCIENTIFIC DOC. CENTRE LTD.
1/CM	TRANSMITTANCE
660.686	0.682
671.768	0.732
682.85	0.759
693.931	0.798
705.013	0.819
716.095	0.837
727.177	0.825
738.259	0.6461
749.34	0.485
760.422	0.733
771.504	0.789
782.586	0.729
793.668	0.665
804.749	0.592
815.831	0.4481
826.913	0.257
837.995	0.18
849.077	0.4569
860.158	0.508
871.24	0.5068
882.322	0.65
893.404	0.672
904.485	0.743
915.567	0.781
926.649	0.773
937.731	0.689
948.813	0.647
959.894	0.657
970.976	0.554
982.058	0.535
993.14	0.553
1004.22	0.585
1015.3	0.564
1026.39	0.525
1037.47	0.3421
1048.55	0.538
1059.63	0.662
1070.71	0.431
1081.79	0.601
1092.88	0.627
1103.96	0.396
1115.04	0.605
1126.12	0.63
1137.2	0.365
1148.28	0.341
1159.37	0.58
1170.45	0.612
1181.53	0.624
1192.61	0.592
1203.69	0.464
1214.78	0.542
1225.86	0.498
1236.94	0.338
1248.02	0.462
1259.1	0.6889
1270.18	0.739
1281.27	0.739
1292.35	0.71
1303.43	0.732
1314.51	0.625
1325.59	0.646
1336.68	0.665
1347.76	0.529
1358.84	0.479
1369.92	0.3341
1381	0.094
1392.08	0.301
1403.17	0.2
1414.25	0.398
1425.33	0.324
1436.41	0.145
1447.49	0.094
1458.58	0.1569
1469.66	0.442
1480.74	0.597
1491.82	0.667
1502.9	0.713
1513.98	0.735
1525.07	0.745
1536.15	0.744
1547.23	0.748
1558.31	0.757
1569.39	0.755
1580.47	0.746
1591.56	0.732
1602.64	0.674
1613.72	0.56
1624.8	0.383
1635.88	0.062
1646.97	0.279
1658.05	0.132
1669.13	0.019
1680.21	0.012
1691.29	0.144
1702.37	0.351
1713.46	0.455
1724.54	0.639
1735.62	0.716
1746.7	0.771
1757.78	0.803
1768.87	0.82
1779.95	0.831
1791.03	0.828
1802.11	0.812
1813.19	0.819
1824.27	0.818
1835.36	0.812
1846.44	0.796
1857.52	0.806
1868.6	0.834
1879.68	0.847
1890.77	0.857
1901.85	0.861
1912.93	0.861
1924.01	0.855
1935.09	0.854
1946.17	0.853
1957.26	0.853
1968.34	0.854
1979.42	0.859
1990.5	0.86
2001.58	0.858
2012.66	0.857
2023.75	0.852
2034.83	0.854
2045.91	0.8555
2056.99	0.858
2068.07	0.8605
2079.16	0.862
2090.24	0.8561
2101.32	0.8569
2112.4	0.8609
2123.48	0.8601
2134.56	0.8541
2145.65	0.8491
2156.73	0.848
2167.81	0.8489
2178.89	0.852
2189.97	0.8549
2201.06	0.857
2212.14	0.86
2223.22	0.86
2234.3	0.8571
2245.38	0.853
2256.46	0.8529
2267.55	0.8556
2278.63	0.853
2289.71	0.8547
2300.79	0.8598
2311.87	0.8623
2322.96	0.8657
2334.04	0.868
2345.12	0.867
2356.2	0.8696
2367.28	0.8649
2378.36	0.8438
2389.45	0.8352
2400.53	0.8324
2411.61	0.8272
2422.69	0.822
2433.77	0.8246
2444.85	0.829
2455.94	0.8275
2467.02	0.8298
2478.1	0.8338
2489.18	0.831
2500.26	0.8327
2511.35	0.8338
2522.43	0.831
2533.51	0.83
2544.59	0.8265
2555.67	0.8198
2566.75	0.819
2577.84	0.819
2588.92	0.8136
2600	0.8042
2611.08	0.7932
2622.16	0.7868
2633.25	0.7792
2644.33	0.7376
2655.41	0.654
2666.49	0.5075
2677.57	0.3704
2688.65	0.3066
2699.74	0.3112
2710.82	0.3914
2721.9	0.4847
2732.98	0.514
2744.06	0.5134
2755.15	0.4907
2766.23	0.4294
2777.31	0.3235
2788.39	0.269
2799.47	0.2531
2810.55	0.256
2821.64	0.2404
2832.72	0.1725
2843.8	0.1248
2854.88	0.1228
2865.96	0.1353
2877.04	0.141
2888.13	0.1222
2899.21	0.0813
2910.29	0.061
2921.37	0.0625
2932.45	0.071
2943.54	0.0745
2954.62	0.074
2965.7	0.0826
2976.78	0.1891
2987.86	0.2391
2998.94	0.3598
3010.03	0.4351
3021.11	0.4809
3032.19	0.5164
3043.27	0.5623
3054.35	0.6062
3065.44	0.6535
3076.52	0.6824
3087.6	0.7048
3098.68	0.7163
3109.76	0.7258
3120.84	0.7392
3131.93	0.7469
3143.01	0.7563
3154.09	0.7668
3165.17	0.7722
3176.25	0.7789
3187.34	0.779
3198.42	0.7799
3209.5	0.7804
3220.58	0.781
3231.66	0.781
3242.74	0.7819
3253.83	0.782
3264.91	0.782
3275.99	0.783
3287.07	0.784
3298.15	0.7827
3309.23	0.7802
3320.32	0.7707
3331.4	0.7507
3342.48	0.7241
3353.56	0.6908
3364.64	0.7
3375.73	0.7339
3386.81	0.7606
3397.89	0.7666
3408.97	0.77
3420.05	0.7702
3431.13	0.767
3442.22	0.7611
3453.3	0.757
3464.38	0.7558
3475.46	0.755
3486.54	0.7543
3497.63	0.7528
3508.71	0.7503
3519.79	0.749
3530.87	0.7517
3541.95	0.7584
3553.03	0.7614
3564.12	0.7652
3575.2	0.7714
3586.28	0.7774
3597.36	0.7857
3608.44	0.788
3619.53	0.789
3630.61	0.7912
3641.69	0.793
3652.77	0.7932
3663.85	0.7967
3674.93	0.796
3686.02	0.796
3697.1	0.795
3708.18	0.796
3719.26	0.7981
3730.34	0.799
3741.42	0.798
3752.51	0.797
3763.59	0.7939
3774.67	0.7898
3785.75	0.786
3796.83	0.7866
3807.92	0.789
3819	0.79
3830.08	0.7899
3841.16	0.7868
3852.24	0.784
3863.32	0.7814
3874.41	0.781
3885.49	0.781
3896.57	0.781
3907.65	0.7795
3918.73	0.778
3929.82	0.7745
3940.9	0.772
3951.98	0.772
3963.06	0.772
3974.14	0.772
3985.22	0.772
3996.31	0.772
4007.39	0.772
4018.47	0.771
4029.55	0.77
4040.63	0.77
4051.72	0.767
4062.8	0.7645
4073.88	0.763
4084.96	0.7625
4096.04	0.763
4107.12	0.762
4118.21	0.76
4129.29	0.7624
4140.37	0.7649
4151.45	0.765
4162.53	0.7621
4173.61	0.761
4184.7	0.76
4195.78	0.759
4206.86	0.7581
4217.94	0.758
4229.02	0.758
4240.11	0.757
4251.19	0.7551
4262.27	0.7506
4273.35	0.7443
4284.43	0.7403
4295.51	0.7372
4306.6	0.7347
4317.68	0.7322
4328.76	0.7287
4339.84	0.7252
4350.92	0.725
4362.01	0.725
4373.09	0.724
4384.17	0.7212
4395.25	0.7197
4406.33	0.718
4417.41	0.72
4428.5	0.72
4439.58	0.72
4450.66	0.7192
4461.74	0.72
4472.82	0.7208
4483.91	0.7245
4494.99	0.7312
4506.07	0.7375
4517.15	0.7445
4528.23	0.7472
4539.31	0.748
4550.4	0.746
4561.48	0.747
4572.56	0.7502
4583.64	0.7537
4594.72	0.7584
4605.8	0.763
4616.89	0.7652
4627.97	0.7663
4639.05	0.765
4650.13	0.7643
4661.21	0.763
4672.3	0.763
4683.38	0.765
4694.46	0.765
4705.54	0.765
4716.62	0.7656
4727.7	0.768
4738.79	0.769
4749.87	0.7689
4760.95	0.7644
4772.03	0.764
4783.11	0.765
4794.2	0.767
4805.28	0.767
4816.36	0.765
4827.44	0.765
4838.52	0.765
4849.6	0.765
4860.69	0.7661
4871.77	0.7676
4882.85	0.769
4893.93	0.7684
4905.01	0.766
4916.1	0.7645
4927.18	0.763
4938.26	0.763
4949.34	0.763
4960.42	0.761
4971.5	0.761
4982.59	0.762
4993.67	0.762
5004.75	0.761
5015.83	0.761
