Infrared Spectrum: M-NITRO CARBANILIC ACID, n-PENTYL ESTER
Formula: C12 H16 N2 O4
CAS: 92848-37-8
State: SOLID (1.6 mg / 200 mg KBr)
Class: COBLENTZ
Instrument: Not specified, most likely a grating spectrometer.
Sampling: TRANSMISSION
Resolution: 4
Origin: CITRUS EXPERIMENT STATION, UNIVERSITY OF FLORIDA (G. EDWARDS)
MICROMETERS	TRANSMITTANCE
2.053	0.64
2.08617	0.644
2.11935	0.649
2.15252	0.657
2.1857	0.657
2.21887	0.66
2.25205	0.663
2.28522	0.663
2.3184	0.668
2.35157	0.677
2.38474	0.677
2.41792	0.684
2.45109	0.688
2.48427	0.69
2.51744	0.702
2.55062	0.708
2.58379	0.708
2.61697	0.714
2.65014	0.72
2.68331	0.728
2.71649	0.73
2.74966	0.733
2.78284	0.737
2.81601	0.737
2.84919	0.737
2.88236	0.732
2.91554	0.704
2.94871	0.582
2.98188	0.42
3.01506	0.619
3.04823	0.696
3.08141	0.717
3.11458	0.717
3.14776	0.712
3.18093	0.677
3.2141	0.657
3.24728	0.664
3.28045	0.726
3.31363	0.704
3.3468	0.558
3.37998	0.51
3.41315	0.584
3.44633	0.612
3.4795	0.608
3.51267	0.725
3.54585	0.761
3.57902	0.763
3.6122	0.775
3.64537	0.778
3.67855	0.786
3.71172	0.787
3.7449	0.789
3.77807	0.79
3.81124	0.791
3.84442	0.799
3.87759	0.801
3.91077	0.802
3.94394	0.806
3.97712	0.807
4.01029	0.807
4.04347	0.81
4.07664	0.812
4.10981	0.819
4.14299	0.82
4.17616	0.822
4.20934	0.826
4.24251	0.827
4.27569	0.827
4.30886	0.827
4.34204	0.827
4.37521	0.827
4.40838	0.828
4.44156	0.83
4.47473	0.834
4.50791	0.832
4.54108	0.835
4.57426	0.839
4.60743	0.84
4.64061	0.844
4.67378	0.851
4.70695	0.852
4.74013	0.851
4.7733	0.851
4.80648	0.851
4.83965	0.854
4.87283	0.854
4.906	0.852
4.93917	0.852
4.97235	0.854
5.00552	0.852
5.0387	0.855
5.07187	0.855
5.10505	0.86
5.13822	0.859
5.1714	0.858
5.20457	0.859
5.23774	0.856
5.27092	0.854
5.30409	0.854
5.33727	0.851
5.37044	0.848
5.40362	0.84
5.43679	0.84
5.46997	0.84
5.50314	0.831
5.53631	0.824
5.56949	0.82
5.60266	0.81
5.63584	0.778
5.66901	0.716
5.70219	0.604
5.73536	0.517
5.76854	0.448
5.80171	0.346
5.83488	0.393
5.86806	0.555
5.90123	0.627
5.93441	0.728
5.96758	0.749
6.00076	0.758
6.03393	0.758
6.06711	0.755
6.10028	0.718
6.13345	0.677
6.16663	0.603
6.1998	0.46
6.23298	0.351
6.26615	0.494
6.29933	0.631
6.3325	0.641
6.36568	0.503
6.39885	0.338
6.43202	0.312
6.4652	0.347
6.49837	0.367
6.53155	0.472
6.56472	0.561
6.5979	0.602
6.63107	0.608
6.66425	0.58
6.69742	0.457
6.73059	0.476
6.76377	0.59
6.79694	0.635
6.83012	0.656
6.86329	0.653
6.89647	0.64
6.92964	0.584
6.96281	0.509
6.99599	0.53
7.02916	0.64
7.06234	0.71
7.09551	0.758
7.12869	0.759
7.16186	0.759
7.19504	0.762
7.22821	0.749
7.26138	0.693
7.29456	0.59
7.32773	0.338
7.36091	0.261
7.39408	0.405
7.42726	0.551
7.46043	0.55
7.49361	0.481
7.52678	0.359
7.55995	0.396
7.59313	0.485
7.6263	0.513
7.65948	0.388
7.69265	0.442
7.72583	0.595
7.759	0.635
7.79218	0.645
7.82535	0.643
7.85852	0.625
7.8917	0.572
7.92487	0.5
7.95805	0.441
7.99122	0.468
8.0244	0.454
8.05757	0.318
8.09075	0.221
8.12392	0.21
8.15709	0.238
8.19027	0.287
8.22344	0.358
8.25662	0.44
8.28979	0.539
8.32297	0.615
8.35614	0.675
8.38932	0.716
8.42249	0.736
8.45566	0.742
8.48884	0.73
8.52201	0.687
8.55519	0.693
8.58836	0.754
8.62154	0.793
8.65471	0.811
8.68788	0.835
8.72106	0.835
8.75423	0.832
8.78741	0.822
8.82058	0.818
8.85376	0.82
8.88693	0.82
8.92011	0.815
8.95328	0.809
8.98645	0.765
9.01963	0.668
9.0528	0.62
9.08598	0.697
9.11915	0.724
9.15233	0.709
9.1855	0.665
9.21868	0.554
9.25185	0.432
9.28502	0.344
9.3182	0.375
9.35137	0.489
9.38455	0.61
9.41772	0.632
9.4509	0.603
9.48407	0.643
9.51725	0.708
9.55042	0.749
9.58359	0.79
9.61677	0.809
9.64994	0.824
9.68312	0.842
9.71629	0.854
9.74947	0.855
9.78264	0.846
9.81582	0.832
9.84899	0.824
9.88216	0.83
9.91534	0.851
9.94851	0.839
9.98169	0.799
10.0149	0.789
10.048	0.859
10.0812	0.867
10.1144	0.86
10.1476	0.835
10.1807	0.801
10.2139	0.72
10.2471	0.685
10.2803	0.736
10.3134	0.791
10.3466	0.822
10.3798	0.848
10.413	0.871
10.4461	0.893
10.4793	0.899
10.5125	0.9
10.5457	0.904
10.5788	0.908
10.612	0.908
10.6452	0.908
10.6784	0.909
10.7115	0.909
10.7447	0.908
10.7779	0.9
10.811	0.877
10.8442	0.848
10.8774	0.811
10.9106	0.803
10.9437	0.847
10.9769	0.888
11.0101	0.901
11.0433	0.9
11.0764	0.891
11.1096	0.868
11.1428	0.819
11.176	0.693
11.2091	0.629
11.2423	0.705
11.2755	0.809
11.3087	0.888
11.3418	0.909
11.375	0.92
11.4082	0.932
11.4414	0.935
11.4745	0.938
11.5077	0.941
11.5409	0.941
11.5741	0.941
11.6072	0.941
11.6404	0.937
11.6736	0.938
11.7068	0.94
11.7399	0.94
11.7731	0.94
11.8063	0.941
11.8395	0.94
11.8726	0.94
11.9058	0.929
11.939	0.923
11.9722	0.895
12.0053	0.842
12.0385	0.759
12.0717	0.606
12.1049	0.458
12.138	0.498
12.1712	0.657
12.2044	0.781
12.2375	0.843
12.2707	0.871
12.3039	0.875
12.3371	0.855
12.3702	0.822
12.4034	0.745
12.4366	0.661
12.4698	0.62
12.5029	0.698
12.5361	0.782
12.5693	0.859
12.6025	0.897
12.6356	0.904
12.6688	0.907
12.702	0.905
12.7352	0.9
12.7683	0.888
12.8015	0.871
12.8347	0.839
12.8679	0.802
12.901	0.737
12.9342	0.679
12.9674	0.675
13.0006	0.7
13.0337	0.748
13.0669	0.775
13.1001	0.81
13.1333	0.848
13.1664	0.887
13.1996	0.899
13.2328	0.899
13.266	0.893
13.2991	0.883
13.3323	0.874
13.3655	0.836
13.3987	0.763
13.4318	0.64
13.465	0.511
13.4982	0.513
13.5314	0.566
13.5645	0.622
13.5977	0.651
13.6309	0.671
13.664	0.681
13.6972	0.732
13.7304	0.802
13.7636	0.852
13.7967	0.88
13.8299	0.888
13.8631	0.893
13.8963	0.911
13.9294	0.907
13.9626	0.904
13.9958	0.903
14.029	0.9
14.0621	0.896
14.0953	0.883
14.1285	0.875
14.1617	0.871
14.1948	0.867
14.228	0.858
14.2612	0.839
14.2944	0.83
14.3275	0.815
14.3607	0.81
14.3939	0.797
14.4271	0.782
14.4602	0.765
14.4934	0.746
14.5266	0.726
14.5598	0.709
14.5929	0.692
14.6261	0.668
14.6593	0.64
14.6925	0.622
14.7256	0.614
14.7588	0.614
14.792	0.622
14.8252	0.636
14.8583	0.643
14.8915	0.651
14.9247	0.668
14.9579	0.676
14.991	0.677
15.0242	0.677
