Infrared Spectrum: 2-(M-BROMOANILINO)-3-METHYL PYRAZINE
Formula: C11 H10 Br N3
CAS: 92847-27-3
State: SOLID (MINERAL OIL MULL)
Melting point: 78-79.5 C
Class: COBLENTZ
Instrument: Not specified, most likely a prism, grating, or hybrid spectrometer.
Sampling: TRANSMISSION
Resolution: 4
Origin: WYANDOTTE CHEMICALS CORP., WYANDOTTE, MICHIGAN, USA
MICROMETERS	TRANSMITTANCE
2.033	0.323
2.07283	0.33
2.11266	0.338
2.15249	0.345
2.19231	0.346
2.23214	0.353
2.27197	0.36
2.3118	0.361
2.35163	0.375
2.39146	0.38
2.43129	0.386
2.47112	0.39
2.51094	0.395
2.55077	0.408
2.5906	0.415
2.63043	0.425
2.67026	0.431
2.71009	0.431
2.74992	0.441
2.78974	0.45
2.82957	0.456
2.8694	0.455
2.90923	0.351
2.94906	0.385
2.98889	0.421
3.02872	0.441
3.06854	0.46
3.10837	0.46
3.1482	0.46
3.18803	0.458
3.22786	0.426
3.26769	0.396
3.30752	0.368
3.34735	0.083
3.38717	0.041
3.427	0.085
3.46683	0.143
3.50666	0.173
3.54649	0.543
3.58632	0.595
3.62615	0.603
3.66597	0.6
3.7058	0.601
3.74563	0.608
3.78546	0.615
3.82529	0.628
3.86512	0.636
3.90495	0.638
3.94477	0.648
3.9846	0.653
4.02443	0.656
4.06426	0.66
4.10409	0.658
4.14392	0.663
4.18375	0.67
4.22358	0.673
4.2634	0.646
4.30323	0.658
4.34306	0.676
4.38289	0.708
4.42272	0.71
4.46255	0.706
4.50238	0.718
4.5422	0.726
4.58203	0.728
4.62186	0.733
4.66169	0.738
4.70152	0.74
4.74135	0.756
4.78118	0.768
4.821	0.778
4.86083	0.78
4.90066	0.781
4.94049	0.785
4.98032	0.798
5.02015	0.801
5.05998	0.805
5.09981	0.808
5.13963	0.815
5.17946	0.825
5.21929	0.806
5.25912	0.825
5.29895	0.833
5.33878	0.838
5.37861	0.838
5.41843	0.848
5.45826	0.836
5.49809	0.86
5.53792	0.878
5.57775	0.883
5.61758	0.881
5.65741	0.848
5.69723	0.873
5.73706	0.88
5.77689	0.915
5.81672	0.923
5.85655	0.923
5.89638	0.933
5.93621	0.93
5.97604	0.931
6.01586	0.921
6.05569	0.908
6.09552	0.895
6.13535	0.82
6.17518	0.5
6.21501	0.183
6.25484	0.435
6.29466	0.588
6.33449	0.49
6.37432	0.608
6.41415	0.571
6.45398	0.51
6.49381	0.425
6.53364	0.17
6.57346	0.125
6.61329	0.276
6.65312	0.42
6.69295	0.561
6.73278	0.47
6.77261	0.141
6.81244	0.191
6.85227	0.221
6.89209	0.145
6.93192	0.136
6.97175	0.165
7.01158	0.181
7.05141	0.346
7.09124	0.43
7.13107	0.431
7.17089	0.5
7.21072	0.44
7.25055	0.19
7.29038	0.273
7.33021	0.411
7.37004	0.556
7.40987	0.598
7.44969	0.555
7.48952	0.52
7.52935	0.58
7.56918	0.603
7.60901	0.633
7.64884	0.651
7.68867	0.648
7.7285	0.686
7.76832	0.698
7.80815	0.705
7.84798	0.708
7.88781	0.618
7.92764	0.615
7.96747	0.703
8.0073	0.7
8.04712	0.731
8.08695	0.705
8.12678	0.576
8.16661	0.675
8.20644	0.703
8.24627	0.7
8.2861	0.713
8.32593	0.676
8.36575	0.323
8.40558	0.3
8.44541	0.615
8.48524	0.72
8.52507	0.721
8.5649	0.751
8.60473	0.781
8.64455	0.788
8.68438	0.788
8.72421	0.745
8.76404	0.645
8.80387	0.521
8.8437	0.623
8.88353	0.698
8.92335	0.736
8.96318	0.763
9.00301	0.783
9.04284	0.796
9.08267	0.781
9.1225	0.768
9.16233	0.785
9.20216	0.798
9.24198	0.8
9.28181	0.791
9.32164	0.69
9.36147	0.69
9.4013	0.766
9.44113	0.786
9.48096	0.8
9.52078	0.808
9.56061	0.808
9.60044	0.805
9.64027	0.8
9.6801	0.76
9.71993	0.706
9.75976	0.765
9.79958	0.806
9.83941	0.81
9.87924	0.805
9.91907	0.828
9.9589	0.838
9.99873	0.841
10.0386	0.831
10.0784	0.718
10.1182	0.633
10.158	0.74
10.1979	0.721
10.2377	0.675
10.2775	0.685
10.3174	0.736
10.3572	0.766
10.397	0.79
10.4368	0.803
10.4767	0.825
10.5165	0.845
10.5563	0.853
10.5962	0.855
10.636	0.86
10.6758	0.865
10.7156	0.868
10.7555	0.873
10.7953	0.876
10.8351	0.878
10.875	0.823
10.9148	0.703
10.9546	0.805
10.9944	0.841
11.0343	0.856
11.0741	0.861
11.1139	0.868
11.1538	0.868
11.1936	0.863
11.2334	0.848
11.2732	0.811
11.3131	0.751
11.3529	0.7
11.3927	0.533
11.4326	0.586
11.4724	0.725
11.5122	0.76
11.552	0.781
11.5919	0.743
11.6317	0.636
11.6715	0.62
11.7114	0.7
11.7512	0.77
11.791	0.798
11.8308	0.78
11.8707	0.743
11.9105	0.743
11.9503	0.615
11.9902	0.4
12.03	0.426
12.0698	0.696
12.1096	0.801
12.1495	0.848
12.1893	0.863
12.2291	0.871
12.269	0.881
12.3088	0.885
12.3486	0.885
12.3884	0.881
12.4283	0.876
12.4681	0.868
12.5079	0.856
12.5478	0.856
12.5876	0.86
12.6274	0.861
12.6672	0.856
12.7071	0.785
12.7469	0.565
12.7867	0.355
12.8266	0.32
12.8664	0.355
12.9062	0.483
12.946	0.676
12.9859	0.785
13.0257	0.838
13.0655	0.838
13.1054	0.803
13.1452	0.83
13.185	0.863
13.2248	0.878
13.2647	0.883
13.3045	0.888
13.3443	0.895
13.3842	0.901
13.424	0.901
13.4638	0.895
13.5036	0.89
13.5435	0.895
13.5833	0.901
13.6231	0.906
13.663	0.908
13.7028	0.91
13.7426	0.908
13.7824	0.908
13.8223	0.908
13.8621	0.908
13.9019	0.906
13.9418	0.911
13.9816	0.925
14.0214	0.936
14.0612	0.94
14.1011	0.94
14.1409	0.946
14.1807	0.948
14.2206	0.948
14.2604	0.948
14.3002	0.946
14.34	0.946
14.3799	0.945
14.4197	0.94
14.4595	0.931
14.4994	0.92
14.5392	0.906
14.579	0.886
14.6189	0.848
14.6587	0.766
14.6985	0.653
14.7383	0.596
14.7782	0.635
14.818	0.728
14.8578	0.766
14.8977	0.756
14.9375	0.703
14.9773	0.653
15.0171	0.628
15.057	0.651
15.0968	0.728
15.1366	0.781
15.1765	0.811
15.2163	0.81
15.2561	0.81
15.2959	0.798
15.3358	0.795
15.3756	0.786
15.4154	0.78
15.4553	0.768
15.4951	0.76
15.5349	0.748
15.5747	0.723
15.6146	0.691
15.6544	0.668
15.6942	0.665
15.7341	0.665
15.7739	0.668
15.8137	0.663
15.8535	0.655
15.8934	0.646
15.9332	0.636
15.973	0.626
