Infrared Spectrum: 5-Pentadecanone
Formula: C 15 H 30 O
CAS: 92862-23-2
State: gas
Origin: EPA-IR VAPOR PHASE LIBRARY
1/CM	ABSORBANCE
549.8	0.00373
559.445	0.00322
569.09	0.00212
578.734	0.00294
588.379	0.00267
598.024	0.00183
607.669	0.00286
617.313	0.00372
626.958	0.00332
636.603	0.00395
646.248	0.0032
655.893	0.00258
665.537	0.0024
675.182	0.00314
684.827	0.00339
694.472	0.00467
704.116	0.00782
713.761	0.01245
723.406	0.01482
733.051	0.01461
742.695	0.01363
752.34	0.0121
761.985	0.01068
771.63	0.00922
781.275	0.00823
790.919	0.006
800.564	0.00518
810.209	0.00452
819.854	0.00461
829.498	0.00457
839.143	0.00475
848.788	0.00466
858.433	0.00486
868.078	0.00525
877.722	0.00609
887.367	0.00631
897.012	0.00629
906.657	0.00643
916.301	0.00629
925.946	0.00702
935.591	0.00802
945.236	0.00803
954.88	0.0091
964.525	0.01021
974.17	0.01115
983.815	0.0117
993.46	0.01209
1003.1	0.01402
1012.75	0.01675
1022.39	0.02538
1032.04	0.03345
1041.68	0.03332
1051.33	0.02862
1060.97	0.02742
1070.62	0.02908
1080.26	0.02615
1089.91	0.02364
1099.55	0.02116
1109.2	0.02473
1118.84	0.0335
1128.49	0.04067
1138.13	0.03963
1147.78	0.03465
1157.42	0.02964
1167.07	0.02802
1176.71	0.02635
1186.36	0.02474
1196	0.02252
1205.64	0.02358
1215.29	0.0258
1224.93	0.02597
1234.58	0.02681
1244.22	0.0274
1253.87	0.02776
1263.51	0.02827
1273.16	0.02693
1282.8	0.02828
1292.45	0.03059
1302.09	0.03347
1311.74	0.03462
1321.38	0.03667
1331.03	0.04318
1340.67	0.05534
1350.32	0.06771
1359.96	0.06978
1369.61	0.05593
1379.25	0.04262
1388.9	0.03531
1398.54	0.02846
1408.18	0.0319
1417.83	0.0376
1427.47	0.03869
1437.12	0.0442
1446.76	0.05871
1456.41	0.0777
1466.05	0.07481
1475.7	0.04689
1485.34	0.02483
1494.99	0.01528
1504.63	0.01076
1514.28	0.00832
1523.92	0.0063
1533.57	0.00562
1543.21	0.00487
1552.86	0.00442
1562.5	0.00404
1572.15	0.00391
1581.79	0.00389
1591.44	0.00365
1601.08	0.00373
1610.73	0.00406
1620.37	0.00407
1630.01	0.00448
1639.66	0.00509
1649.3	0.00596
1658.95	0.00736
1668.59	0.01009
1678.24	0.01543
1687.88	0.0237
1697.53	0.04192
1707.17	0.08679
1716.82	0.1703
1726.46	0.21348
1736.11	0.1215
1745.75	0.0492
1755.4	0.0234
1765.04	0.01346
1774.69	0.00868
1784.33	0.00619
1793.98	0.00471
1803.62	0.00372
1813.27	0.00318
1822.91	0.00272
1832.55	0.00228
1842.2	0.00235
1851.84	0.00202
1861.49	0.00169
1871.13	0.00153
1880.78	0.00142
1890.42	0.00144
1900.07	0.00143
1909.71	0.00122
1919.36	0.00122
1929	0.00128
1938.65	0.0011
1948.29	0.0009761
1957.94	0.00113
1967.58	0.00117
1977.23	0.00135
1986.87	0.00125
1996.52	0.00124
2006.16	0.00169
2015.81	0.00151
2025.45	0.00195
2035.1	0.00199
2044.74	0.00211
2054.38	0.00193
2064.03	0.0017
2073.67	0.00161
2083.32	0.00166
2092.96	0.00146
2102.61	0.00156
2112.25	0.0016
2121.9	0.0015
2131.54	0.00162
2141.19	0.00174
2150.83	0.00182
2160.48	0.00181
2170.12	0.00171
2179.77	0.00179
2189.41	0.00179
2199.06	0.00179
2208.7	0.00177
2218.35	0.00168
2227.99	0.00182
2237.64	0.00147
2247.28	0.00157
2256.92	0.00171
2266.57	0.00168
2276.21	0.00171
2285.86	0.00176
2295.5	0.00169
2305.15	0.00168
2314.79	0.00179
2324.44	0.00175
2334.08	0.00197
2343.73	0.00196
2353.37	0.00186
2363.02	0.00204
2372.66	0.00199
2382.31	0.00166
2391.95	0.00187
2401.6	0.00191
2411.24	0.00184
2420.89	0.00201
2430.53	0.00176
2440.18	0.00166
2449.82	0.00165
2459.47	0.00151
2469.11	0.00156
2478.75	0.00163
2488.4	0.00166
2498.04	0.00181
2507.69	0.00213
2517.33	0.00208
2526.98	0.00227
2536.62	0.0026
2546.27	0.00275
2555.91	0.00286
2565.56	0.00308
2575.2	0.00323
2584.85	0.00375
2594.49	0.00381
2604.14	0.00422
2613.78	0.00455
2623.43	0.00519
2633.07	0.00559
2642.72	0.00637
2652.36	0.00685
2662.01	0.00775
2671.65	0.00847
2681.29	0.00883
2690.94	0.00864
2700.58	0.00826
2710.23	0.00843
2719.87	0.00817
2729.52	0.0091
2739.16	0.01048
2748.81	0.0116
2758.45	0.01172
2768.1	0.01275
2777.74	0.01455
2787.39	0.01772
2797.03	0.02189
2806.68	0.02723
2816.32	0.03434
2825.97	0.04399
2835.61	0.06074
2845.26	0.09961
2854.9	0.19915
2864.55	0.29281
2874.19	0.26344
2883.84	0.24093
2893.48	0.23022
2903.12	0.26889
2912.77	0.36665
2922.41	0.55805
2932.06	0.76048
2941.7	0.66387
2951.35	0.47691
2960.99	0.41652
2970.64	0.36997
2980.28	0.19809
2989.93	0.10457
2999.57	0.06446
3009.22	0.04406
3018.86	0.03281
3028.51	0.02603
3038.15	0.0211
3047.8	0.01746
3057.44	0.01459
3067.09	0.01265
3076.73	0.01105
3086.38	0.01013
3096.02	0.00927
3105.67	0.00799
3115.31	0.00742
3124.95	0.00667
3134.6	0.00578
3144.24	0.00537
3153.89	0.00557
3163.53	0.00481
3173.18	0.00455
3182.82	0.00443
3192.47	0.00399
3202.11	0.00344
3211.76	0.00312
3221.4	0.00247
3231.05	0.00228
3240.69	0.00203
3250.34	0.00168
3259.98	0.0013
3269.63	0.00116
3279.27	0.00154
3288.92	0.00103
3298.56	0.00141
3308.21	0.00135
3317.85	0.00141
3327.49	0.00144
3337.14	0.00141
3346.78	0.0015
3356.43	0.00158
3366.07	0.00156
3375.72	0.00177
3385.36	0.00201
3395.01	0.00183
3404.65	0.0026
3414.3	0.00322
3423.94	0.00438
3433.59	0.00461
3443.23	0.00312
3452.88	0.00245
3462.52	0.00149
3472.17	0.0009523
3481.81	0.000886
3491.46	0.0006993
3501.1	0.000848
3510.75	0.0003554
3520.39	0.0005594
3530.04	0.0007082
3539.68	0.0008726
3549.32	0.0002866
3558.97	0.000743
3568.61	0.0006136
3578.26	0.0004561
3587.9	0.00113
3597.55	0.0009199
3607.19	0.0009945
3616.84	0.00129
3626.48	0.00137
3636.13	0.00125
3645.77	0.00155
3655.42	0.00148
3665.06	0.00145
3674.71	0.00144
3684.35	0.00176
3694	0.00158
3703.64	0.00143
3713.29	0.00151
3722.93	0.00122
3732.58	0.00139
3742.22	0.00137
3751.86	0.00168
3761.51	0.0018
3771.15	0.00177
3780.8	0.00141
3790.44	0.0019
3800.09	0.00204
3809.73	0.00174
3819.38	0.0018
3829.02	0.00176
3838.67	0.00177
3848.31	0.00156
3857.96	0.00159
3867.6	0.00175
3877.25	0.00132
3886.89	0.00176
3896.54	0.00162
3906.18	0.00185
3915.83	0.00164
3925.47	0.00185
3935.12	0.00168
3944.76	0.00206
3954.41	0.00199
3964.05	0.00225
3973.69	0.00261
3983.34	0.00293
3992.98	0.00287
