Infrared Spectrum: 1,4-Decadiyne
Formula: C 10 H 14
CAS: 929-53-3
State: gas
Origin: EPA-IR VAPOR PHASE LIBRARY
1/CM	ABSORBANCE
549.8	0.0042055
559.445	0.0042069
569.09	0.00462
578.734	0.00569
588.379	0.00431
598.024	0.00516
607.669	0.00879
617.313	0.01645
626.958	0.02604
636.603	0.05165
646.248	0.06161
655.893	0.02654
665.537	0.01075
675.182	0.00613
684.827	0.00562
694.472	0.00584
704.116	0.00634
713.761	0.00638
723.406	0.00559
733.051	0.00565
742.695	0.00532
752.34	0.0046
761.985	0.00441
771.63	0.0046
781.275	0.00481
790.919	0.0039905
800.564	0.0039069
810.209	0.0040524
819.854	0.00566
829.498	0.0035652
839.143	0.0041952
848.788	0.0039054
858.433	0.00446
868.078	0.0039156
877.722	0.0043623
887.367	0.00483
897.012	0.00498
906.657	0.00547
916.301	0.00648
925.946	0.00538
935.591	0.00536
945.236	0.00464
954.88	0.00471
964.525	0.00478
974.17	0.00447
983.815	0.00448
993.46	0.00444
1003.1	0.00449
1012.75	0.00449
1022.39	0.002722
1032.04	0.0038657
1041.68	0.0038152
1051.33	0.00461
1060.97	0.0037542
1070.62	0.003772
1080.26	0.002978
1089.91	0.003111
1099.55	0.0038951
1109.2	0.002931
1118.84	0.00195
1128.49	0.00021
1138.13	0.00236
1147.78	0.002759
1157.42	0.002987
1167.07	0.0033573
1176.71	0.00339042
1186.36	0.003053
1196	0.0041889
1205.64	0.00462
1215.29	0.00625
1224.93	0.00524
1234.58	0.00638
1244.22	0.01044
1253.87	0.01681
1263.51	0.01814
1273.16	0.01358
1282.8	0.01019
1292.45	0.01109
1302.09	0.01838
1311.74	0.02848
1321.38	0.0187
1331.03	0.01421
1340.67	0.01082
1350.32	0.00859
1359.96	0.00775
1369.61	0.00702
1379.25	0.00694
1388.9	0.00678
1398.54	0.00638
1408.18	0.00674
1417.83	0.0077
1427.47	0.00936
1437.12	0.01156
1446.76	0.01201
1456.41	0.01196
1466.05	0.01124
1475.7	0.00895
1485.34	0.006
1494.99	0.00512
1504.63	0.00462
1514.28	0.00448
1523.92	0.0041578
1533.57	0.0039543
1543.21	0.0038568
1552.86	0.0039331
1562.5	0.0038531
1572.15	0.0036941
1581.79	0.003839
1591.44	0.003255
1601.08	0.0034439
1610.73	0.0035092
1620.37	0.003175
1630.01	0.0037169
1639.66	0.003386
1649.3	0.0035271
1658.95	0.0033156
1668.59	0.0035592
1678.24	0.003265
1687.88	0.00338781
1697.53	0.0032989
1707.17	0.00348443
1716.82	0.0035563
1726.46	0.003158
1736.11	0.003272
1745.75	0.003127
1755.4	0.003045
1765.04	0.0033125
1774.69	0.00341934
1784.33	0.003265
1793.98	0.00313
1803.62	0.00314
1813.27	0.0033447
1822.91	0.00345721
1832.55	0.0035545
1842.2	0.0036006
1851.84	0.0035014
1861.49	0.003476
1871.13	0.0033811
1880.78	0.003153
1890.42	0.00343367
1900.07	0.0033465
1909.71	0.0033533
1919.36	0.0035316
1929	0.003159
1938.65	0.00344456
1948.29	0.003278
1957.94	0.0034219
1967.58	0.003562
1977.23	0.0033486
1986.87	0.00343251
1996.52	0.0033249
2006.16	0.0036842
2015.81	0.0036274
2025.45	0.0036952
2035.1	0.0037316
2044.74	0.0034997
2054.38	0.0036168
2064.03	0.0035118
2073.67	0.0034864
2083.32	0.0037722
2092.96	0.0038381
2102.61	0.0042987
2112.25	0.00456
2121.9	0.00547
2131.54	0.00519
2141.19	0.0042176
2150.83	0.0037633
2160.48	0.0036441
2170.12	0.0037549
2179.77	0.0039853
2189.41	0.0035961
2199.06	0.0036647
2208.7	0.0039221
2218.35	0.0041631
2227.99	0.0039196
2237.64	0.0040498
2247.28	0.004278
2256.92	0.0038292
2266.57	0.0039436
2276.21	0.0041452
2285.86	0.0043386
2295.5	0.0043823
2305.15	0.0040355
2314.79	0.0039805
2324.44	0.004017
2334.08	0.0037169
2343.73	0.0037553
2353.37	0.0036741
2363.02	0.0036735
2372.66	0.0040191
2382.31	0.003743
2391.95	0.0037323
2401.6	0.0035424
2411.24	0.0037651
2420.89	0.0036047
2430.53	0.0038977
2440.18	0.0037895
2449.82	0.0036779
2459.47	0.0038347
2469.11	0.0039886
2478.75	0.0035012
2488.4	0.003262
2498.04	0.0038373
2507.69	0.0035632
2517.33	0.0035745
2526.98	0.0038542
2536.62	0.0037501
2546.27	0.0039705
2555.91	0.0038625
2565.56	0.004177
2575.2	0.0040212
2584.85	0.0039037
2594.49	0.0039672
2604.14	0.0037356
2613.78	0.0037801
2623.43	0.0040778
2633.07	0.0045
2642.72	0.0041359
2652.36	0.0043387
2662.01	0.00505
2671.65	0.00465
2681.29	0.00523
2690.94	0.00476
2700.58	0.0043813
2710.23	0.00456
2719.87	0.00453
2729.52	0.00487
2739.16	0.00536
2748.81	0.00467
2758.45	0.00484
2768.1	0.00554
2777.74	0.005
2787.39	0.00545
2797.03	0.00562
2806.68	0.00634
2816.32	0.00719
2825.97	0.00921
2835.61	0.01117
2845.26	0.01574
2854.9	0.02267
2864.55	0.03162
2874.19	0.03484
2883.84	0.03257
2893.48	0.02983
2903.12	0.03324
2912.77	0.04597
2922.41	0.06206
2932.06	0.08347
2941.7	0.09268
2951.35	0.07122
2960.99	0.05946
2970.64	0.05374
2980.28	0.03263
2989.93	0.01802
2999.57	0.01249
3009.22	0.0097
3018.86	0.00846
3028.51	0.00712
3038.15	0.00644
3047.8	0.00527
3057.44	0.00553
3067.09	0.00532
3076.73	0.00452
3086.38	0.00484
3096.02	0.00464
3105.67	0.00466
3115.31	0.0042725
3124.95	0.0043591
3134.6	0.00444
3144.24	0.0043631
3153.89	0.0037261
3163.53	0.003246
3173.18	0.004057
3182.82	0.0040933
3192.47	0.0033261
3202.11	0.0037206
3211.76	0.0037726
3221.4	0.0042963
3231.05	0.004313
3240.69	0.0039243
3250.34	0.0039103
3259.98	0.00446
3269.63	0.00459
3279.27	0.00555
3288.92	0.00892
3298.56	0.011
3308.21	0.01701
3317.85	0.02135
3327.49	0.02965
3337.14	0.02508
3346.78	0.01208
3356.43	0.00669
3366.07	0.0052
3375.72	0.00486
3385.36	0.0035272
3395.01	0.0039186
3404.65	0.0039713
3414.3	0.0039094
3423.94	0.0037906
3433.59	0.00342173
3443.23	0.00339552
3452.88	0.002769
3462.52	0.0042053
3472.17	0.0033562
3481.81	0.003679
3491.46	0.00346758
3501.1	0.002532
3510.75	0.002955
3520.39	0.0033318
3530.04	0.0035179
3539.68	0.0031
3549.32	0.00339749
3558.97	0.0035677
3568.61	0.002632
3578.26	0.003577
3587.9	0.002824
3597.55	0.00342024
3607.19	0.0037625
3616.84	0.0032945
3626.48	0.002991
3636.13	0.0037491
3645.77	0.0035574
3655.42	0.00346215
3665.06	0.003533
3674.71	0.003082
3684.35	0.0035421
3694	0.0037353
3703.64	0.0036296
3713.29	0.0041748
3722.93	0.003215
3732.58	0.003335
3742.22	0.002676
3751.86	0.003165
3761.51	0.003614
3771.15	0.003278
3780.8	0.002825
3790.44	0.0033214
3800.09	0.003007
3809.73	0.003034
3819.38	0.003263
3829.02	0.0039712
3838.67	0.0041081
3848.31	0.0036933
3857.96	0.00344771
3867.6	0.0040041
3877.25	0.003276
3886.89	0.003075
3896.54	0.003017
3906.18	0.00344774
3915.83	0.0035704
3925.47	0.0042053
3935.12	0.0036191
3944.76	0.0037167
3954.41	0.0037158
3964.05	0.0040299
3973.69	0.0040551
3983.34	0.0038898
3992.98	0.0033735
