Infrared Spectrum: ARMEEN 12D HYDROCHLORIDE
Formula: C12 H28 Cl N ( P R I N C I P A L L Y)
CAS: 929-73-7
State: SOLID (KBr DISC, 0.8% WT.)
Class: COBLENTZ
Instrument: PERKIN-ELMER 157
Sampling: TRANSMISSION
Resolution: 2
Origin: BRITISH PETROLEUM CO. LTD., ENGLAND
1/CM	TRANSMITTANCE
667	1.014
676	0.9865
685	0.954
694	0.9087
703	0.8206
712	0.57
721	0.2248
730	0.1397
739	0.5785
748	0.765
757	0.7199
766	0.5824
775	0.7789
784	0.7727
793	0.6959
802	0.794
811	0.7963
820	0.7824
829	0.7121
838	0.4952
847	0.7401
856	0.7551
865	0.7289
874	0.7034
883	0.5405
892	0.5952
901	0.6676
910	0.6699
919	0.5701
928	0.3858
937	0.4065
946	0.2692
955	0.6317
964	0.6378
973	0.497
982	0.5002
991	0.4537
1000	0.5374
1009	0.4463
1018	0.2926
1027	0.5106
1036	0.4505
1045	0.3516
1054	0.5218
1063	0.4311
1072	0.3418
1081	0.5713
1090	0.6054
1099	0.5872
1108	0.5216
1117	0.3547
1126	0.5338
1135	0.5317
1144	0.3363
1153	0.2994
1162	0.1643
1171	0.4655
1180	0.5207
1189	0.5146
1198	0.5063
1207	0.3888
1216	0.5097
1225	0.5217
1234	0.4716
1243	0.5095
1252	0.5079
1261	0.4839
1270	0.4735
1279	0.4874
1288	0.4387
1297	0.4178
1306	0.4083
1315	0.4111
1324	0.4076
1333	0.4416
1342	0.4419
1351	0.4433
1360	0.4094
1369	0.3013
1378	0.3136
1387	0.2941
1396	0.1739
1405	0.2824
1414	0.3704
1423	0.3617
1432	0.3246
1441	0.2545
1450	0.1578
1459	0.0468
1468	0.0327
1477	0.0423
1486	0.1256
1495	0.126
1504	0.0702
1513	0.0448
1522	0.0689
1531	0.1333
1540	0.1966
1549	0.2103
1558	0.2021
1567	0.1484
1576	0.1127
1585	0.0689
1594	0.0727
1603	0.0837
1612	0.0846
1621	0.084
1630	0.0859
1639	0.1979
1648	0.2938
1657	0.3346
1666	0.3421
1675	0.3585
1684	0.3616
1693	0.3704
1702	0.371
1711	0.3711
1720	0.3721
1729	0.378
1738	0.3831
1747	0.384
1756	0.3847
1765	0.3841
1774	0.383
1783	0.3811
1792	0.376
1801	0.3717
1810	0.3679
1819	0.3601
1828	0.3587
1837	0.3583
1846	0.3577
1855	0.3529
1864	0.3444
1873	0.3358
1882	0.3257
1891	0.3142
1900	0.3037
1909	0.2939
1918	0.2843
1927	0.2762
1936	0.2715
1945	0.26
1954	0.247
1963	0.2341
1972	0.2273
1981	0.222
1990	0.2084
1999	0.1979
2008	0.189
2017	0.1873
2026	0.1882
2035	0.1915
2044	0.2171
2053	0.2366
2062	0.2536
2071	0.2702
2080	0.29
2089	0.307
2098	0.3272
2107	0.3343
2116	0.3366
2125	0.3378
2134	0.3381
2143	0.3375
2152	0.3369
2161	0.3356
2170	0.3343
2179	0.3333
2188	0.3337
2197	0.33
2206	0.3232
2215	0.3177
2224	0.3155
2233	0.3135
2242	0.312
2251	0.3107
2260	0.3092
2269	0.305
2278	0.2982
2287	0.2969
2296	0.296
2305	0.2895
2314	0.2829
2323	0.2753
2332	0.2663
2341	0.2574
2350	0.2498
2359	0.2439
2368	0.2389
2377	0.2379
2386	0.236
2395	0.2277
2404	0.2185
2413	0.21
2422	0.2076
2431	0.1842
2440	0.1629
2449	0.1476
2458	0.1377
2467	0.1322
2476	0.1316
2485	0.1253
2494	0.1107
2503	0.0938
2512	0.0852
2521	0.0748
2530	0.0676
2539	0.0661
2548	0.0654
2557	0.0649
2566	0.0646
2575	0.0643
2584	0.0638
2593	0.056
2602	0.0492
2611	0.0476
2620	0.0459
2629	0.0407
2638	0.0345
2647	0.0332
2656	0.0324
2665	0.0319
2674	0.0315
2683	0.0312
2692	0.0306
2701	0.028
2710	0.0182
2719	0.0071
2728	0.0063
2737	0.0058
2746	0.0055
2755	0.0053
2764	0.0052
2773	0.0051
2782	0.0051
2791	0.005
2800	0.005
2809	0.0051
2818	0.0051
2827	0.0051
2836	0.0051
2845	0.0044
2854	0.005
2863	0.0049
2872	0.0048
2881	0.0047
2890	0.0047
2899	0.0047
2908	0.0047
2917	0.0048
2926	0.0048
2935	0.0048
2944	0.0048
2953	0.0049
2962	0.0049
2971	0.005
2980	0.005
2989	0.0051
2998	0.0051
3007	0.0052
3016	0.0052
3025	0.0053
3034	0.0063
3043	0.0075
3052	0.0091
3061	0.0109
3070	0.0127
3079	0.0133
3088	0.0136
3097	0.0162
3106	0.0192
3115	0.0233
3124	0.0248
3133	0.0258
3142	0.0264
3151	0.0272
3160	0.0279
3169	0.0285
3178	0.029
3187	0.0294
3196	0.0298
3205	0.0301
3214	0.0306
3223	0.0309
3232	0.0312
3241	0.0314
3250	0.0316
3259	0.0318
3268	0.0318
3277	0.0319
3286	0.0359
3295	0.0416
3304	0.0435
3313	0.0439
3322	0.0442
3331	0.0447
3340	0.0472
3349	0.0508
3358	0.0536
3367	0.0555
3376	0.0571
3385	0.0585
3394	0.0596
3403	0.0607
3412	0.0613
3421	0.0617
3430	0.0621
3439	0.0625
3448	0.0628
3457	0.0631
3466	0.0632
3475	0.0634
3484	0.0635
3493	0.0636
3502	0.0637
3511	0.0637
3520	0.0638
3529	0.0639
3538	0.0641
3547	0.0642
3556	0.0642
3565	0.0644
3574	0.0645
3583	0.0645
3592	0.0645
3601	0.0645
3610	0.0644
3619	0.0644
3628	0.0644
3637	0.0643
3646	0.0643
3655	0.0643
3664	0.0642
3673	0.0642
3682	0.0642
3691	0.0642
3700	0.0642
3709	0.0642
3718	0.0641
3727	0.0641
3736	0.0641
3745	0.0641
3754	0.0639
3763	0.0637
3772	0.0635
3781	0.0624
3790	0.0611
3799	0.0597
3808	0.0585
3817	0.0572
3826	0.056
3835	0.0552
3844	0.0545
3853	0.0538
3862	0.053
3871	0.0524
3880	0.052
3889	0.0517
3898	0.0513
3907	0.0509
3916	0.0507
3925	0.0504
3934	0.0501
3943	0.05
3952	0.0499
3961	0.0498
3970	0.0497
3979	0.0497
3988	0.0496
3997	0.0496
