Infrared Spectrum: 3-CARBOMETHOXYAMINO-3-PHENYL-2,3-DIHYDROBENZOFURANE
Formula: C16 H15 N O3
CAS: 92963-36-5
State: SOLUTION (7% IN CHCl3)
Class: COBLENTZ
Instrument: PERKIN-ELMER
Sampling: TRANSMISSION
Path length: 0.010 CM CELL
Resolution: 4
Origin: ABBOTT LABORATORIES - WASHBURN
MICROMETERS	TRANSMITTANCE
2.05	0.915
2.08307	0.917
2.11614	0.922
2.14921	0.923
2.18228	0.9268
2.21535	0.9298
2.24842	0.93
2.28149	0.928
2.31456	0.9348
2.34763	0.9352
2.3807	0.935
2.41377	0.935
2.44684	0.935
2.47991	0.9369
2.51298	0.938
2.54605	0.942
2.57912	0.942
2.61219	0.943
2.64526	0.945
2.67833	0.947
2.7114	0.9471
2.74447	0.9498
2.77754	0.9513
2.81061	0.931
2.84368	0.8923
2.87675	0.7645
2.90982	0.7268
2.94289	0.8434
2.97596	0.872
3.00903	0.8839
3.0421	0.8971
3.07517	0.922
3.10824	0.9331
3.14131	0.933
3.17438	0.9223
3.20745	0.8902
3.24052	0.8299
3.27359	0.7794
3.30666	0.7478
3.33973	0.7691
3.3728	0.7825
3.40587	0.8365
3.43894	0.852
3.47201	0.8899
3.50508	0.91
3.53815	0.93
3.57122	0.9451
3.60429	0.953
3.63736	0.955
3.67043	0.955
3.7035	0.955
3.73657	0.953
3.76964	0.953
3.80271	0.953
3.83578	0.955
3.86885	0.951
3.90192	0.951
3.93499	0.953
3.96806	0.955
4.00113	0.955
4.0342	0.9529
4.06727	0.945
4.10034	0.943
4.13341	0.947
4.16648	0.9578
4.19955	0.9659
4.23263	0.971
4.2657	0.9711
4.29877	0.97
4.33184	0.968
4.36491	0.968
4.39798	0.971
4.43105	0.971
4.46412	0.966
4.49719	0.963
4.53026	0.963
4.56333	0.963
4.5964	0.965
4.62947	0.963
4.66254	0.963
4.69561	0.96
4.72868	0.9613
4.76175	0.961
4.79482	0.9631
4.82789	0.96
4.86096	0.963
4.89403	0.965
4.9271	0.963
4.96017	0.961
4.99324	0.95
5.02631	0.9528
5.05938	0.9403
5.09245	0.926
5.12552	0.9195
5.15859	0.9313
5.19166	0.9374
5.22473	0.9309
5.2578	0.92
5.29087	0.925
5.32394	0.928
5.35701	0.9344
5.39008	0.937
5.42315	0.9297
5.45622	0.9126
5.48929	0.9
5.52236	0.889
5.55543	0.894
5.5885	0.8892
5.62157	0.8736
5.65464	0.8071
5.68771	0.6844
5.72078	0.2551
5.75385	0.1167
5.78692	0.0616
5.81999	0.1447
5.85306	0.348
5.88613	0.4578
5.9192	0.5472
5.95227	0.7242
5.98534	0.8146
6.01841	0.839
6.05148	0.8665
6.08455	0.8623
6.11762	0.8466
6.15069	0.7824
6.18376	0.6551
6.21683	0.4827
6.2499	0.5421
6.28297	0.686
6.31604	0.739
6.34911	0.8115
6.38218	0.827
6.41525	0.8235
6.44832	0.8099
6.48139	0.7882
6.51446	0.7056
6.54753	0.6444
6.5806	0.5359
6.61367	0.3288
6.64674	0.1439
6.67981	0.0946
6.71288	0.1042
6.74595	0.112
6.77902	0.1964
6.81209	0.3283
6.84516	0.2881
6.87823	0.4067
6.9113	0.4465
6.94437	0.6647
6.97744	0.7082
7.01051	0.7061
7.04358	0.7641
7.07665	0.8035
7.10972	0.8255
7.14279	0.8403
7.17586	0.844
7.20893	0.8413
7.242	0.8298
7.27507	0.7921
7.30814	0.7051
7.34121	0.6387
7.37428	0.6333
7.40735	0.606
7.44042	0.5994
7.47349	0.6621
7.50656	0.7111
7.53963	0.745
7.5727	0.7262
7.60577	0.663
7.63884	0.7287
7.67191	0.7604
7.70498	0.7529
7.73805	0.7151
7.77112	0.6297
7.80419	0.5207
7.83726	0.5076
7.87033	0.444
7.9034	0.3342
7.93647	0.2533
7.96954	0.2042
8.00261	0.198
8.03568	0.203
8.06875	0.205
8.10182	0.206
8.13489	0.2128
8.16796	0.23
8.20103	0.2486
8.2341	0.2718
8.26717	0.2929
8.30024	0.316
8.33331	0.362
8.36638	0.4466
8.39945	0.5116
8.43252	0.5512
8.46559	0.6047
8.49866	0.6643
8.53174	0.677
8.56481	0.678
8.59788	0.6899
8.63095	0.697
8.66402	0.7101
8.69709	0.6652
8.73016	0.6751
8.76323	0.7174
8.7963	0.7548
8.82937	0.7776
8.86244	0.8034
8.89551	0.8178
8.92858	0.8233
8.96165	0.8134
8.99472	0.7945
9.02779	0.7699
9.06086	0.7346
9.09393	0.6145
9.127	0.5425
9.16007	0.5955
9.19314	0.5723
9.22621	0.514
9.25928	0.5669
9.29235	0.6052
9.32542	0.5965
9.35849	0.576
9.39156	0.5924
9.42463	0.612
9.4577	0.6027
9.49077	0.5885
9.52384	0.6043
9.55691	0.7154
9.58998	0.7817
9.62305	0.819
9.65612	0.8116
9.68919	0.75
9.72226	0.6888
9.75533	0.6957
9.7884	0.6996
9.82147	0.6532
9.85454	0.6488
9.88761	0.7314
9.92068	0.7607
9.95375	0.7573
9.98682	0.7279
10.0199	0.7016
10.053	0.672
10.086	0.649
10.1191	0.6436
10.1522	0.6192
10.1852	0.5964
10.2183	0.5593
10.2514	0.5037
10.2844	0.4573
10.3175	0.4354
10.3506	0.4392
10.3837	0.4823
10.4167	0.5588
10.4498	0.6068
10.4829	0.653
10.5159	0.6773
10.549	0.6956
10.5821	0.7063
10.6151	0.7151
10.6482	0.72
10.6813	0.7259
10.7144	0.723
10.7474	0.721
10.7805	0.726
10.8136	0.7344
10.8466	0.7529
10.8797	0.7708
10.9128	0.7945
10.9459	0.812
10.9789	0.8264
11.012	0.8313
11.0451	0.841
11.0781	0.8424
11.1112	0.847
11.1443	0.846
11.1773	0.847
11.2104	0.8488
11.2435	0.8517
11.2766	0.857
11.3096	0.8629
11.3427	0.865
11.3758	0.8662
11.4088	0.8681
11.4419	0.872
11.475	0.87
11.508	0.87
11.5411	0.8697
11.5742	0.87
11.6073	0.8687
11.6403	0.8668
11.6734	0.862
11.7065	0.859
11.7395	0.859
11.7726	0.8617
11.8057	0.8605
11.8387	0.8576
11.8718	0.8451
11.9049	0.8091
11.938	0.7534
11.971	0.6914
12.0041	0.6607
12.0372	0.6334
12.0702	0.6475
12.1033	0.7134
12.1364	0.774
12.1694	0.8226
12.2025	0.852
12.2356	0.8768
12.2687	0.8963
12.3017	0.9124
12.3348	0.9396
12.3679	0.9671
12.4009	1.009
12.434	1.0086
12.4671	1.008
12.5001	1.0084
12.5332	1.006
12.5663	1.006
12.5994	1.006
12.6324	1.006
12.6655	1.008
12.6986	1.0079
12.7316	1.006
12.7647	1.003
12.7978	1.004
12.8308	1.006
12.8639	1.006
12.897	1.003
12.9301	1.004
12.9631	1.0035
12.9962	1.003
13.0293	1.0035
13.0623	1.0035
13.0954	1.004
13.1285	1.003
13.1615	1.0022
13.1946	0.998
13.2277	1.001
13.2608	1.001
13.2938	1.0001
13.3269	1.001
13.36	1.001
13.393	1
13.4261	0.9935
13.4592	0.991
13.4922	0.991
13.5253	0.995
13.5584	0.997
13.5915	0.9991
13.6245	1.001
13.6576	1.001
13.6907	1.001
13.7237	1
13.7568	0.9977
13.7899	0.993
13.8229	0.99
13.856	0.991
13.8891	0.9913
13.9222	0.99
13.9552	0.9793
13.9883	0.9716
14.0214	0.9654
14.0544	0.9472
14.0875	0.9206
14.1206	0.891
14.1536	0.8621
14.1867	0.8102
14.2198	0.7345
14.2529	0.6415
14.2859	0.5538
14.319	0.4745
14.3521	0.4371
14.3851	0.4447
14.4182	0.4937
14.4513	0.5905
14.4843	0.6599
14.5174	0.7232
14.5505	0.7581
14.5836	0.7761
14.6166	0.7869
14.6497	0.7968
14.6828	0.7997
14.7158	0.8048
14.7489	0.812
14.782	0.8161
14.815	0.826
14.8481	0.827
14.8812	0.824
14.9143	0.826
14.9473	0.822
14.9804	0.8142
