Infrared Spectrum: 4-PHENYL-4-CHROMANCARBOXAMIDE
Formula: C16 H15 N O2
CAS: 92962-91-9
State: SOLUTION (7% IN CHCl3)
Class: COBLENTZ
Instrument: PERKIN-ELMER
Sampling: TRANSMISSION
Path length: 0.010 CM CELL
Resolution: 4
Origin: ABBOTT LABORATORIES - WASHBURN
MICROMETERS	TRANSMITTANCE
2.059	0.911
2.09189	0.919
2.12479	0.922
2.15768	0.922
2.19058	0.9191
2.22347	0.922
2.25637	0.9268
2.28926	0.9299
2.32216	0.93
2.35505	0.927
2.38795	0.922
2.42084	0.925
2.45374	0.927
2.48663	0.924
2.51953	0.9291
2.55242	0.9388
2.58532	0.943
2.61821	0.942
2.65111	0.942
2.684	0.945
2.7169	0.947
2.74979	0.943
2.78269	0.958
2.81558	0.916
2.84848	0.5708
2.88137	0.5857
2.91427	0.794
2.94716	0.6167
2.98006	0.752
3.01295	0.757
3.04585	0.7461
3.07874	0.7588
3.11164	0.7464
3.14453	0.7215
3.17743	0.7277
3.21032	0.765
3.24322	0.7407
3.27611	0.7109
3.30901	0.657
3.3419	0.614
3.3748	0.6974
3.40769	0.7613
3.44059	0.8169
3.47348	0.7738
3.50638	0.8498
3.53927	0.8953
3.57217	0.9169
3.60506	0.912
3.63796	0.914
3.67085	0.917
3.70375	0.9289
3.73664	0.934
3.76954	0.937
3.80243	0.945
3.83533	0.9448
3.86822	0.945
3.90112	0.947
3.93401	0.942
3.96691	0.943
3.9998	0.942
4.0327	0.942
4.06559	0.939
4.09849	0.9224
4.13138	0.9199
4.16428	0.9271
4.19717	0.9371
4.23007	0.947
4.26296	0.947
4.29586	0.95
4.32875	0.95
4.36165	0.9549
4.39454	0.96
4.42744	0.963
4.46033	0.965
4.49323	0.967
4.52612	0.968
4.55902	0.968
4.59191	0.97
4.62481	0.9729
4.6577	0.973
4.6906	0.973
4.72349	0.973
4.75639	0.973
4.78928	0.971
4.82218	0.967
4.85507	0.963
4.88797	0.968
4.92086	0.958
4.95376	0.95
4.98665	0.9599
5.01955	0.9531
5.05244	0.9533
5.08534	0.9383
5.11823	0.9213
5.15113	0.9323
5.18402	0.9425
5.21692	0.929
5.24981	0.937
5.28271	0.9313
5.3156	0.9423
5.3485	0.9472
5.38139	0.957
5.41429	0.955
5.44718	0.9454
5.48008	0.937
5.51297	0.9205
5.54587	0.9118
5.57876	0.9241
5.61166	0.9216
5.64455	0.917
5.67745	0.914
5.71034	0.9083
5.74324	0.902
5.77613	0.885
5.80903	0.8334
5.84192	0.7234
5.87482	0.4674
5.90771	0.1323
5.94061	0.0583
5.9735	0.0724
6.0064	0.3609
6.03929	0.5657
6.07219	0.7037
6.10508	0.7653
6.13798	0.792
6.17087	0.7653
6.20377	0.6271
6.23666	0.5048
6.26956	0.4942
6.30245	0.3444
6.33535	0.1864
6.36824	0.3987
6.40114	0.6721
6.43403	0.8049
6.46693	0.8394
6.49982	0.8511
6.53272	0.863
6.56561	0.8586
6.59851	0.8484
6.6314	0.8184
6.6643	0.6924
6.69719	0.376
6.73008	0.1816
6.76298	0.506
6.79587	0.6467
6.82877	0.7446
6.86166	0.7361
6.89456	0.4466
6.92745	0.4065
6.96035	0.6403
6.99324	0.719
7.02614	0.6673
7.05903	0.7649
7.09193	0.8114
7.12482	0.818
7.15772	0.815
7.19061	0.8104
7.22351	0.7655
7.2564	0.713
7.2893	0.6734
7.32219	0.5831
7.35509	0.5343
7.38798	0.507
7.42088	0.5333
7.45377	0.5816
7.48667	0.6239
7.51956	0.6068
7.55246	0.5584
7.58535	0.5734
7.61825	0.6032
7.65114	0.4849
7.68404	0.4201
7.71693	0.5988
7.74983	0.645
7.78272	0.5327
7.81562	0.4767
7.84851	0.5862
7.88141	0.6765
7.9143	0.6746
7.9472	0.6246
7.98009	0.5141
8.01299	0.5107
8.04588	0.5142
8.07878	0.4948
8.11167	0.4658
8.14457	0.4002
8.17746	0.3995
8.21036	0.4248
8.24325	0.4554
8.27615	0.4745
8.30904	0.4947
8.34194	0.5474
8.37483	0.6974
8.40773	0.7785
8.44062	0.8147
8.47352	0.8437
8.50641	0.85
8.53931	0.8511
8.5722	0.8679
8.6051	0.884
8.63799	0.8831
8.67089	0.8215
8.70378	0.7746
8.73668	0.8703
8.76957	0.8952
8.80247	0.896
8.83536	0.8846
8.86826	0.8165
8.90115	0.6641
8.93405	0.5379
8.96694	0.5777
8.99984	0.7534
9.03273	0.805
9.06563	0.8221
9.09852	0.813
9.13142	0.8085
9.16431	0.7861
9.19721	0.779
9.2301	0.7579
9.263	0.7007
9.29589	0.6803
9.32879	0.6626
9.36168	0.6572
9.39458	0.6944
9.42747	0.7425
9.46037	0.754
9.49326	0.6989
9.52616	0.4842
9.55905	0.2854
9.59195	0.3643
9.62484	0.5628
9.65774	0.6512
9.69063	0.621
9.72353	0.685
9.75642	0.7506
9.78932	0.7908
9.82221	0.807
9.85511	0.8122
9.888	0.825
9.9209	0.83
9.95379	0.835
9.98669	0.8228
10.0196	0.8135
10.0525	0.819
10.0854	0.8385
10.1183	0.8519
10.1512	0.855
10.1841	0.8599
10.217	0.864
10.2498	0.8625
10.2827	0.8571
10.3156	0.8582
10.3485	0.863
10.3814	0.8611
10.4143	0.866
10.4472	0.866
10.4801	0.8595
10.513	0.8496
10.5459	0.8271
10.5788	0.815
10.6117	0.8211
10.6446	0.8334
10.6775	0.851
10.7104	0.8507
10.7433	0.84
10.7762	0.807
10.8091	0.7008
10.842	0.6651
10.8749	0.6977
10.9077	0.7305
10.9406	0.75
10.9735	0.7733
11.0064	0.7939
11.0393	0.8166
11.0722	0.8275
11.1051	0.8424
11.138	0.858
11.1709	0.8683
11.2038	0.8715
11.2367	0.873
11.2696	0.874
11.3025	0.879
11.3354	0.878
11.3683	0.879
11.4012	0.879
11.4341	0.8838
11.467	0.887
11.4999	0.887
11.5327	0.885
11.5656	0.8802
11.5985	0.879
11.6314	0.8676
11.6643	0.8506
11.6972	0.845
11.7301	0.8579
11.763	0.861
11.7959	0.8581
11.8288	0.8439
11.8617	0.8273
11.8946	0.8087
11.9275	0.813
11.9604	0.8294
11.9933	0.8461
12.0262	0.8634
12.0591	0.874
12.092	0.878
12.1249	0.887
12.1578	0.889
12.1906	0.887
12.2235	0.8831
12.2564	0.883
12.2893	0.8862
12.3222	0.881
12.3551	0.879
12.388	0.878
12.4209	0.876
12.4538	0.8722
12.4867	0.8637
12.5196	0.8558
12.5525	0.8506
12.5854	0.843
12.6183	0.851
12.6512	0.855
12.6841	0.8589
12.717	0.861
12.7499	0.8725
12.7828	0.879
12.8157	0.883
12.8485	0.887
12.8814	0.894
12.9143	0.8951
12.9472	0.8977
12.9801	0.9045
13.013	0.909
13.0459	0.9119
13.0788	0.9089
13.1117	0.9149
13.1446	0.9189
13.1775	0.9267
13.2104	0.9305
13.2433	0.925
13.2762	0.9246
13.3091	0.927
13.342	0.9302
13.3749	0.9356
13.4078	0.9406
13.4407	0.9473
13.4736	0.9554
13.5064	0.955
13.5393	0.953
13.5722	0.957
13.6051	0.958
13.638	0.958
13.6709	0.958
13.7038	0.9611
13.7367	0.963
13.7696	0.963
13.8025	0.967
13.8354	0.97
13.8683	0.9694
13.9012	0.968
13.9341	0.967
13.967	0.962
13.9999	0.9523
14.0328	0.937
14.0657	0.9093
14.0986	0.8881
14.1315	0.846
14.1643	0.7952
14.1972	0.7099
14.2301	0.6119
14.263	0.5429
14.2959	0.464
14.3288	0.3963
14.3617	0.3548
14.3946	0.3826
14.4275	0.4874
14.4604	0.5691
14.4933	0.6433
14.5262	0.7014
14.5591	0.7213
14.592	0.7409
14.6249	0.7603
14.6578	0.7688
14.6907	0.7853
14.7236	0.7951
14.7565	0.8123
14.7894	0.8188
14.8222	0.823
14.8551	0.825
14.888	0.823
14.9209	0.828
14.9538	0.831
14.9867	0.831
