Infrared Spectrum: N,N-Diethyl-p-phenylenediamine
Formula: C 10 H 16 N 2
CAS: 93-05-0
State: gas
Origin: EPA-IR VAPOR PHASE LIBRARY
1/CM	ABSORBANCE
501.5	0.0053716
513.074	0.0050516
524.648	0.0046016
536.222	0.0049416
547.796	0.0053116
559.37	0.0048916
570.944	0.0039516
582.518	0.0031416
594.092	0.0032216
605.666	0.0033416
617.24	0.0036916
628.814	0.0048516
640.388	0.0072816
651.962	0.0101316
663.536	0.0091516
675.11	0.0071216
686.684	0.0052416
698.258	0.0047016
709.832	0.0046016
721.406	0.0043016
732.98	0.0039116
744.554	0.0032516
756.128	0.0030216
767.702	0.0034216
779.276	0.0051016
790.85	0.0073116
802.423	0.0087316
813.997	0.0102316
825.571	0.0082416
837.145	0.0047716
848.719	0.0028316
860.293	0.0020916
871.867	0.0017116
883.441	0.0017516
895.015	0.0019016
906.589	0.0016316
918.163	0.0015116
929.737	0.0013616
941.311	0.0012716
952.885	0.0013116
964.459	0.0013916
976.033	0.0015816
987.607	0.0020116
999.181	0.0028416
1010.76	0.0039516
1022.33	0.0041416
1033.9	0.0038316
1045.48	0.0038616
1057.05	0.0047516
1068.63	0.0057416
1080.2	0.0059016
1091.77	0.0058216
1103.35	0.0053616
1114.92	0.0049916
1126.49	0.0052116
1138.07	0.0065816
1149.64	0.0066316
1161.22	0.0055716
1172.79	0.0074416
1184.36	0.0089216
1195.94	0.0070616
1207.51	0.0050416
1219.09	0.0048916
1230.66	0.0083216
1242.23	0.0177316
1253.81	0.0236016
1265.38	0.0217916
1276.96	0.0113216
1288.53	0.0057816
1300.1	0.0046316
1311.68	0.0045016
1323.25	0.0050916
1334.83	0.0066316
1346.4	0.0079516
1357.97	0.0085616
1369.55	0.0094316
1381.12	0.0107916
1392.7	0.0070416
1404.27	0.0037116
1415.84	0.0027616
1427.42	0.0027416
1438.99	0.0032916
1450.57	0.0043016
1462.14	0.0050416
1473.71	0.0056116
1485.29	0.0070716
1496.86	0.0177516
1508.44	0.0542916
1520.01	0.0477016
1531.58	0.0130716
1543.16	0.0055816
1554.73	0.0036216
1566.31	0.0030716
1577.88	0.0031316
1589.45	0.0035116
1601.03	0.0051016
1612.6	0.0090416
1624.18	0.0107816
1635.75	0.0068016
1647.32	0.0032616
1658.9	0.0022316
1670.47	0.0015216
1682.05	0.0010916
1693.62	0.0009849
1705.19	0.0009169
1716.77	0.0008579
1728.34	0.0007948
1739.92	0.0007269
1751.49	0.0006445
1763.06	0.0005905
1774.64	0.0005637
1786.21	0.0005588
1797.79	0.0005887
1809.36	0.0007374
1820.93	0.0009065
1832.51	0.0009786
1844.08	0.0009445
1855.66	0.0008844
1867.23	0.0007887
1878.8	0.0006915
1890.38	0.0006317
1901.95	0.0006651
1913.53	0.0007333
1925.1	0.0006929
1936.67	0.0006205
1948.25	0.0004719
1959.82	0.0004109
1971.4	0.0004044
1982.97	0.000408
1994.54	0.000387
2006.12	0.0003825
2017.69	0.0004143
2029.27	0.0004004
2040.84	0.0004125
2052.41	0.0004486
2063.99	0.0004468
2075.56	0.0004188
2087.14	0.0003831
2098.71	0.000342
2110.28	0.0003154
2121.86	0.0002701
2133.43	0.0002747
2145.01	0.0002448
2156.58	0.0002536
2168.15	0.0002426
2179.73	0.0002595
2191.3	0.000276
2202.88	0.0002467
2214.45	0.0002361
2226.02	0.0002545
2237.6	0.000264
2249.17	0.0002815
2260.74	0.0003557
2272.32	0.0004311
2283.89	0.0004149
2295.47	0.0003936
2307.04	0.000365
2318.61	0.0003108
2330.19	0.0002604
2341.76	0.0002587
2353.34	0.0002369
2364.91	0.0002183
2376.48	0.0002182
2388.06	0.0002522
2399.63	0.00028
2411.21	0.000296
2422.78	0.0002974
2434.35	0.0002963
2445.93	0.0002951
2457.5	0.0002998
2469.08	0.0002373
2480.65	0.0002843
2492.22	0.000328
2503.8	0.0003416
2515.37	0.0003992
2526.95	0.0004002
2538.52	0.0004064
2550.09	0.0004117
2561.67	0.0004078
2573.24	0.0004473
2584.82	0.0005058
2596.39	0.0005441
2607.96	0.0005438
2619.54	0.0005393
2631.11	0.00057
2642.69	0.0006315
2654.26	0.0006745
2665.83	0.000809
2677.41	0.0008956
2688.98	0.001049
2700.56	0.0011216
2712.13	0.0012516
2723.7	0.0013316
2735.28	0.0014616
2746.85	0.0015616
2758.43	0.0018316
2770	0.0021616
2781.57	0.0026416
2793.15	0.0037316
2804.72	0.0060316
2816.3	0.0084016
2827.87	0.0088116
2839.44	0.0073416
2851.02	0.0063016
2862.59	0.0064716
2874.17	0.0083316
2885.74	0.0092416
2897.31	0.0083116
2908.89	0.0086116
2920.46	0.0104716
2932.04	0.0147616
2943.61	0.0160516
2955.18	0.0131316
2966.76	0.0176416
2978.33	0.0243916
2989.91	0.0164616
3001.48	0.0084916
3013.05	0.0068916
3024.63	0.0080216
3036.2	0.0088216
3047.78	0.0050616
3059.35	0.0035016
3070.92	0.0031516
3082.5	0.0027216
3094.07	0.0025516
3105.65	0.0021316
3117.22	0.0015516
3128.79	0.0010916
3140.37	0.0008115
3151.94	0.0006288
3163.52	0.0004774
3175.09	0.0003066
3186.66	0.0003507
3198.24	0.000329
3209.81	0.0003491
3221.39	0.0003562
3232.96	0.0003079
3244.53	0.0003009
3256.11	0.0002513
3267.68	0.0002565
3279.26	0.0002069
3290.83	0.000189
3302.4	0.00015732
3313.98	0.0001735
3325.55	9.286e-05
3337.13	1.92e-05
3348.7	8.082e-05
3360.27	0.00016125
3371.85	0.0002771
3383.42	0.0005872
3395	0.0011616
3406.57	0.0013616
3418.14	0.0007986
3429.72	0.0005085
3441.29	0.000457
3452.86	0.0006067
3464.44	0.0008817
3476.01	0.0010501
3487.59	0.0011416
3499.16	0.0007544
3510.73	0.0004642
3522.31	0.0002722
3533.88	0.0002646
3545.46	9.608e-05
3557.03	0.00012107
3568.6	8.502e-05
3580.18	0.00016892
3591.75	8.365e-05
3603.33	8.609e-05
3614.9	0.00014942
3626.47	0.00013723
3638.05	0.0001718
3649.62	0.00013234
3661.2	0.00014782
3672.77	0.00013819
3684.34	0.0001857
3695.92	0.0002073
3707.49	0.000216
3719.07	0.00014741
3730.64	0.0001738
3742.21	0.00015534
3753.79	0.0001849
3765.36	0.00015979
3776.94	0.00013969
3788.51	0.0002234
3800.08	8.995e-05
3811.66	0.00016664
3823.23	0.0001051
3834.81	0.00012591
3846.38	0.00013708
3857.95	0.0002411
3869.53	0.000184
3881.1	0.0002517
3892.68	0.0002431
3904.25	0.0002762
3915.82	0.0003233
3927.4	0.0002817
3938.97	0.0002382
3950.55	0.0003688
3962.12	0.0003056
3973.69	0.0003266
3985.27	0.0003588
3996.84	0.0003741
