Infrared Spectrum: 3-(o-Methoxyphenoxy)-1,2-propanediol
Formula: C10 H14 O4
CAS: 93-14-1
State: SOLID (SPLIT MULL), FLUOROLUBE FOR 3800-1330 CM^-^1, NUJOL FOR 1330-400 CM^-^1
Class: COBLENTZ II
Instrument: DOW KBr FOREPRISM-GRATING
Instrument parameters: BLAZED AT 3.5, 12.0, 20.0 MICRON AND CHANGED AT 5.0, 7.5, 14.9 MICRON
Sampling: TRANSMISSION
Resolution: 2
Origin: DOW CHEMICAL COMPANY
1/CM	TRANSMITTANCE
3798	0.8489
3789	0.8489
3780	0.849
3771	0.8498
3762	0.8504
3753	0.8509
3744	0.8515
3735	0.852
3726	0.854
3717	0.8568
3708	0.8603
3699	0.8636
3690	0.865
3681	0.8649
3672	0.8647
3663	0.8647
3654	0.8647
3645	0.8648
3636	0.8648
3627	0.8648
3618	0.8649
3609	0.8653
3600	0.8655
3591	0.8651
3582	0.8638
3573	0.8512
3564	0.8506
3555	0.849
3546	0.8467
3537	0.8431
3528	0.8383
3519	0.832
3510	0.8231
3501	0.8137
3492	0.8039
3483	0.7925
3474	0.7807
3465	0.7672
3456	0.7507
3447	0.7308
3438	0.7095
3429	0.6762
3420	0.6299
3411	0.5937
3402	0.5483
3393	0.514
3384	0.48
3375	0.4109
3366	0.36
3357	0.3189
3348	0.2809
3339	0.2385
3330	0.1873
3321	0.1487
3312	0.141
3303	0.138
3294	0.1366
3285	0.1325
3276	0.1255
3267	0.1134
3258	0.1028
3249	0.0983
3240	0.095
3231	0.0975
3222	0.1121
3213	0.128
3204	0.1484
3195	0.1727
3186	0.2008
3177	0.2381
3168	0.2752
3159	0.3128
3150	0.3527
3141	0.3805
3132	0.4288
3123	0.4534
3114	0.4746
3105	0.5133
3096	0.5383
3087	0.5585
3078	0.5453
3069	0.4866
3060	0.5791
3051	0.6183
3042	0.6293
3033	0.6403
3024	0.6554
3015	0.6676
3006	0.5075
2997	0.6364
2988	0.6934
2979	0.7022
2970	0.6931
2961	0.5866
2952	0.5529
2943	0.3182
2934	0.3416
2925	0.3872
2916	0.4862
2907	0.5419
2898	0.5708
2889	0.5389
2880	0.493
2871	0.5259
2862	0.5904
2853	0.627
2844	0.6288
2835	0.4893
2826	0.6425
2817	0.6646
2808	0.6749
2799	0.6924
2790	0.7144
2781	0.7305
2772	0.7341
2763	0.7325
2754	0.7249
2745	0.7185
2736	0.7183
2727	0.7221
2718	0.7201
2709	0.7193
2700	0.7221
2691	0.7305
2682	0.7408
2673	0.739
2664	0.7328
2655	0.7271
2646	0.731
2637	0.746
2628	0.7608
2619	0.7741
2610	0.7832
2601	0.7864
2592	0.7878
2583	0.7814
2574	0.7615
2565	0.7674
2556	0.7688
2547	0.7689
2538	0.7742
2529	0.7801
2520	0.7834
2511	0.7841
2502	0.7855
2493	0.7915
2484	0.7976
2475	0.7969
2466	0.7965
2457	0.7965
2448	0.7969
2439	0.7975
2430	0.7984
2421	0.7985
2412	0.8001
2403	0.8021
2394	0.8039
2385	0.8044
2376	0.8062
2367	0.8078
2358	0.8087
2349	0.8085
2340	0.8068
2331	0.8065
2322	0.8089
2313	0.8111
2304	0.8132
2295	0.8148
2286	0.8108
2277	0.8054
2268	0.8041
2259	0.8098
2250	0.8126
2241	0.8143
2232	0.8162
2223	0.8195
2214	0.8236
2205	0.8271
2196	0.83
2187	0.8309
2178	0.831
2169	0.8295
2160	0.8233
2151	0.8288
2142	0.8316
2133	0.8345
2124	0.8368
2115	0.8371
2106	0.8373
2097	0.8352
2088	0.8309
2079	0.8252
2070	0.821
2061	0.8187
2052	0.8215
2043	0.828
2034	0.8286
2025	0.8191
2016	0.8199
2007	0.8234
1998	0.8304
1989	0.8418
1980	0.8542
1971	0.8591
1962	0.8601
1953	0.8641
1944	0.863
1935	0.8646
1926	0.8621
1917	0.8573
1908	0.838
1899	0.8536
1890	0.8608
1881	0.8621
1872	0.8564
1863	0.8168
1854	0.8525
1845	0.8618
1836	0.8645
1827	0.8652
1818	0.8583
1809	0.8575
1800	0.8636
1791	0.8594
1782	0.8567
1773	0.8575
1764	0.8589
1755	0.86
1746	0.8443
1737	0.8323
1728	0.8587
1719	0.865
1710	0.8661
1701	0.8656
1692	0.8635
1683	0.8584
1674	0.8515
1665	0.846
1656	0.8409
1647	0.8409
1638	0.8346
1629	0.8391
1620	0.842
1611	0.8298
1602	0.7343
1593	0.3321
1584	0.5769
1575	0.7468
1566	0.7905
1557	0.7951
1548	0.7846
1539	0.7732
1530	0.6185
1521	0.4987
1512	0.0217
1503	0.3748
1494	0.6245
1485	0.6767
1476	0.5266
1467	0.2155
1458	0.1275
1449	0.4257
1440	0.4366
1431	0.6657
1422	0.7071
1413	0.7245
1404	0.6931
1395	0.6968
1386	0.464
1377	0.408
1368	0.6297
1359	0.6475
1350	0.5456
1341	0.4888
1332	0.434
1323	0.5909
1314	0.6596
1305	0.6233
1296	0.2904
1287	0.5907
1278	0.6385
1269	0.4695
1260	0.0366
1251	0.0811
1242	0.4084
1233	0.1403
1224	0.0989
1215	0.4326
1206	0.6585
1197	0.7285
1188	0.4121
1179	0.3771
1170	0.7543
1161	0.7875
1152	0.6793
1143	0.7265
1134	0.2726
1125	0.2152
1116	0.6317
1107	0.2258
1098	0.5743
1089	0.7388
1080	0.7881
1071	0.7457
1062	0.504
1053	0.524
1044	0.1581
1035	0.4082
1026	0.4012
1017	0.3414
1008	0.7083
999	0.7061
990	0.2107
981	0.7288
972	0.7926
963	0.8108
954	0.7291
945	0.7972
936	0.5072
927	0.6911
918	0.8155
909	0.5433
900	0.8437
891	0.851
882	0.8624
873	0.8766
864	0.883
855	0.8808
846	0.764
837	0.5275
828	0.7762
819	0.843
810	0.8677
801	0.859
792	0.8417
783	0.8011
774	0.645
765	0.4099
756	0.4972
747	0.0694
738	0.3534
729	0.6079
720	0.6054
711	0.6818
702	0.7271
693	0.7395
684	0.7328
675	0.7243
666	0.7224
657	0.7301
648	0.728
639	0.6469
630	0.6312
621	0.6894
612	0.7468
603	0.7843
594	0.7981
585	0.7928
576	0.8296
567	0.8514
558	0.8544
549	0.8623
540	0.8595
531	0.8481
522	0.8835
513	0.8923
504	0.8975
495	0.9048
486	0.9101
477	0.9089
468	0.8711
459	0.8795
450	0.8947
441	0.8567
432	0.8489
423	0.8885
414	0.887
405	0.8877
396	0.893
387	0.9
