Infrared Spectrum: 1-Allyl-3,4-dimethoxybenzene
Formula: C 11 H 14 O 2
CAS: 93-15-2
State: gas
Instrument: HP-GC/MS/IRD
Origin: NIST Mass Spectrometry Data Center
1/CM	ABSORBANCE
550	0.0006435
562	0.0004191
574	0.0003465
586	0.0006567
598	0.0009636
610	0.0009207
622	0.0007095
634	0.0010032
646	0.0012441
658	0.0008481
670	0.0002673
682	0.0001353
694	0
706	0.000165
718	0.0005346
730	0.0015444
742	0.0028017
754	0.0028314
766	0.0023859
778	0.0014124
790	0.0015609
802	0.0029865
814	0.0035871
826	0.0025773
838	0.0015411
850	0.0016566
862	0.0015279
874	0.001617
886	0.002013
898	0.0031185
910	0.005709
922	0.0051315
934	0.0027159
946	0.0022308
958	0.0020262
970	0.0021417
982	0.0034287
994	0.0055143
1006	0.0065076
1018	0.0116457
1030	0.0164472
1042	0.0123948
1054	0.0051612
1066	0.0023727
1078	0.0018744
1090	0.0021582
1102	0.0032043
1114	0.0059235
1126	0.0104577
1138	0.011121
1150	0.0102828
1162	0.0070719
1174	0.0045672
1186	0.0046167
1198	0.0049236
1210	0.0078936
1222	0.0136818
1234	0.01716
1246	0.0165297
1258	0.0219615
1270	0.0319638
1282	0.0254133
1294	0.0146751
1306	0.0086361
1318	0.0053955
1330	0.0037158
1342	0.0024453
1354	0.0016566
1366	0.0013728
1378	0.001386
1390	0.0020064
1402	0.0043296
1414	0.0074217
1426	0.0061611
1438	0.0070719
1450	0.0072369
1462	0.0079266
1474	0.0077715
1486	0.0085404
1498	0.0211035
1510	0.033
1522	0.0155925
1534	0.0051315
1546	0.002706
1558	0.0023595
1570	0.0033561
1582	0.0045144
1594	0.0039666
1606	0.0034947
1618	0.0025806
1630	0.0024585
1642	0.002772
1654	0.0011583
1666	0.00066
1678	0.0004719
1690	0.0004125
1702	0.0003102
1714	0.0002937
1726	0.0002838
1738	0.0003003
1750	0.0002805
1762	0.0002772
1774	0.0002871
1786	0.0003003
1798	0.0003168
1810	0.0003696
1822	0.0005214
1834	0.0007392
1846	0.0005676
1858	0.0004356
1870	0.0003828
1882	0.0002871
1894	0.000231
1906	0.0001914
1918	0.000165
1930	0.0001221
1942	0.0001617
1954	0.0002145
1966	0.0002838
1978	0.0003333
1990	0.0003795
2002	0.0004686
2014	0.0005445
2026	0.00066
2038	0.0006765
2050	0.0005478
2062	0.0004389
2074	0.0003399
2086	0.0002343
2098	0.0001188
2110	3.63e-05
2122	2.31e-05
2134	2.31e-05
2146	5.61e-05
2158	6.27e-05
2170	7.92e-05
2182	0.0001155
2194	9.9e-05
2206	6.93e-05
2218	5.94e-05
2230	7.26e-05
2242	7.92e-05
2254	0.0001155
2266	0.0001287
2278	9.57e-05
2290	5.94e-05
2302	3.96e-05
2314	3.63e-05
2326	6.6e-06
2338	9.9e-06
2350	2.97e-05
2362	6.93e-05
2374	4.29e-05
2386	9.9e-06
2398	6.6e-06
2410	6.6e-06
2422	2.31e-05
2434	2.97e-05
2446	4.29e-05
2458	3.63e-05
2470	4.95e-05
2482	6.93e-05
2494	8.58e-05
2506	0.0001155
2518	0.0001155
2530	0.0001782
2542	0.0002145
2554	0.0002442
2566	0.0002277
2578	0.0002211
2590	0.0002079
2602	0.0001881
2614	0.000132
2626	0.0001188
2638	9.9e-05
2650	8.25e-05
2662	5.61e-05
2674	0.0001122
2686	0.0001188
2698	0.000132
2710	0.0001254
2722	0.0001584
2734	0.0002178
2746	0.0002376
2758	0.0002871
2770	0.0003663
2782	0.0004785
2794	0.0007392
2806	0.0012639
2818	0.0023232
2830	0.0048873
2842	0.0075834
2854	0.0056397
2866	0.0041877
2878	0.003993
2890	0.004752
2902	0.0068277
2914	0.0091509
2926	0.0097449
2938	0.0119262
2950	0.0118899
2962	0.0090948
2974	0.0073722
2986	0.0077022
2998	0.0094017
3010	0.0090948
3022	0.0052239
3034	0.0043593
3046	0.0043362
3058	0.0041877
3070	0.0038082
3082	0.0041151
3094	0.0034155
3106	0.0016269
3118	0.0010395
3130	0.0007161
3142	0.0004785
3154	0.0003267
3166	0.0002508
3178	0.0001947
3190	0.0001551
3202	0.0001485
3214	0.0001188
3226	8.91e-05
3238	5.94e-05
3250	5.94e-05
3262	5.28e-05
3274	2.97e-05
3286	7.59e-05
3298	1.65e-05
3310	1.32e-05
3322	3.3e-05
3334	4.29e-05
3346	6.27e-05
3358	3.63e-05
3370	6.93e-05
3382	5.28e-05
3394	2.97e-05
3406	9.9e-06
3418	2.97e-05
3430	3.63e-05
3442	3.63e-05
3454	2.64e-05
3466	2.64e-05
3478	3.96e-05
3490	7.26e-05
3502	5.28e-05
3514	4.29e-05
3526	7.26e-05
3538	3.96e-05
3550	6.93e-05
3562	7.59e-05
3574	7.59e-05
3586	9.57e-05
3598	3.3e-05
3610	7.26e-05
3622	5.94e-05
3634	3.63e-05
3646	7.59e-05
3658	0.0001254
3670	5.61e-05
3682	7.92e-05
3694	4.29e-05
3706	2.97e-05
3718	8.25e-05
3730	3.63e-05
3742	4.29e-05
3754	5.61e-05
3766	6.27e-05
3778	6.6e-05
3790	0.0001122
3802	9.24e-05
3814	0.000165
3826	0.0001254
3838	6.6e-05
