Infrared Spectrum: 2-(2-Naphthoxy)ethanol
Formula: C 12 H 12 O 2
CAS: 93-20-9
State: gas
Origin: EPA-IR VAPOR PHASE LIBRARY
1/CM	ABSORBANCE
549.9	0.00367
559.547	0.0034
569.193	0.00281
578.84	0.00214
588.486	0.00181
598.133	0.00181
607.779	0.0023
617.426	0.0064
627.072	0.00779
636.719	0.00298
646.365	0.00223
656.012	0.00184
665.658	0.0015114
675.305	0.0017168
684.951	0.002
694.598	0.00289
704.245	0.00384
713.891	0.00539
723.538	0.00945
733.184	0.01819
742.831	0.02581
752.477	0.01407
762.124	0.00544
771.77	0.00356
781.417	0.00358
791.063	0.00694
800.71	0.01224
810.356	0.01181
820.003	0.01072
829.649	0.01793
839.296	0.02341
848.943	0.01788
858.589	0.01202
868.236	0.01098
877.882	0.01084
887.529	0.01005
897.175	0.00972
906.822	0.00924
916.468	0.01092
926.115	0.01116
935.761	0.00815
945.408	0.00683
955.054	0.01173
964.701	0.01715
974.347	0.00984
983.994	0.00738
993.64	0.00851
1003.29	0.01204
1012.93	0.02068
1022.58	0.03141
1032.23	0.0493
1041.87	0.05378
1051.52	0.03666
1061.17	0.02651
1070.81	0.0263
1080.46	0.02674
1090.11	0.02003
1099.75	0.01437
1109.4	0.01449
1119.05	0.02953
1128.69	0.02403
1138.34	0.01151
1147.99	0.01211
1157.63	0.02159
1167.28	0.05519
1176.92	0.06114
1186.57	0.02785
1196.22	0.02121
1205.86	0.05028
1215.51	0.07874
1225.16	0.03571
1234.8	0.02468
1244.45	0.04839
1254.1	0.0753
1263.74	0.06562
1273.39	0.0422
1283.04	0.02145
1292.68	0.01264
1302.33	0.00919
1311.98	0.00819
1321.62	0.00874
1331.27	0.01172
1340.92	0.01521
1350.56	0.02087
1360.21	0.02392
1369.86	0.02209
1379.5	0.02235
1389.15	0.02215
1398.79	0.01564
1408.44	0.00971
1418.09	0.00757
1427.73	0.00701
1437.38	0.00913
1447.03	0.01553
1456.67	0.03436
1466.32	0.03628
1475.97	0.02236
1485.61	0.01366
1495.26	0.0161
1504.91	0.03284
1514.55	0.0278
1524.2	0.0063
1533.85	0.00418
1543.49	0.00374
1553.14	0.00363
1562.79	0.00493
1572.43	0.00906
1582.08	0.01477
1591.73	0.02754
1601.37	0.04068
1611.02	0.02004
1620.67	0.02754
1630.31	0.04668
1639.96	0.02357
1649.6	0.0094
1659.25	0.00531
1668.9	0.00407
1678.54	0.004
1688.19	0.00362
1697.84	0.00299
1707.48	0.00249
1717.13	0.00206
1726.78	0.00207
1736.42	0.00246
1746.07	0.0033
1755.72	0.00281
1765.36	0.00201
1775.01	0.00227
1784.66	0.00182
1794.3	0.00182
1803.95	0.00182
1813.6	0.0019
1823.24	0.00189
1832.89	0.0016081
1842.54	0.0012316
1852.18	0.0010813
1861.83	0.0013377
1871.47	0.0017505
1881.12	0.00243
1890.77	0.00297
1900.41	0.00316
1910.06	0.00289
1919.71	0.00239
1929.35	0.00271
1939	0.00279
1948.65	0.0015242
1958.29	0.001241
1967.94	0.0011611
1977.59	0.0011748
1987.23	0.0011
1996.88	0.0009218
2006.53	0.000784
2016.17	0.0008529
2025.82	0.00079281
2035.47	0.00088133
2045.11	0.0009769
2054.76	0.0010775
2064.41	0.0010883
2074.05	0.0012714
2083.7	0.0013947
2093.35	0.0011964
2102.99	0.0010472
2112.64	0.0010569
2122.28	0.001007
2131.93	0.0009069
2141.58	0.0009219
2151.22	0.00084391
2160.87	0.0009052
2170.52	0.0009464
2180.16	0.0008941
2189.81	0.0007377
2199.46	0.0007479
2209.1	0.0007383
2218.75	0.000646
2228.4	0.000689
2238.04	0.0007648
2247.69	0.000672
2257.34	0.0007501
2266.98	0.0007584
2276.63	0.00089395
2286.28	0.0009061
2295.92	0.0009018
2305.57	0.00088489
2315.22	0.00085345
2324.86	0.0009943
2334.51	0.0009988
2344.16	0.0010999
2353.8	0.0009691
2363.45	0.0009216
2373.09	0.0009335
2382.74	0.0011067
2392.39	0.001068
2402.03	0.0010664
2411.68	0.0010693
2421.33	0.0012544
2430.97	0.0012511
2440.62	0.0010674
2450.27	0.0009677
2459.91	0.0009021
2469.56	0.0009564
2479.21	0.0009412
2488.85	0.00083833
2498.5	0.0008653
2508.15	0.00082962
2517.79	0.0008663
2527.44	0.0009357
2537.09	0.00084383
2546.73	0.0009277
2556.38	0.00084338
2566.03	0.0009415
2575.67	0.00089568
2585.32	0.00086634
2594.96	0.0010146
2604.61	0.0010231
2614.26	0.00086392
2623.9	0.0009201
2633.55	0.00086126
2643.2	0.001028
2652.84	0.000936
2662.49	0.00089606
2672.14	0.00087593
2681.78	0.00083735
2691.43	0.0009669
2701.08	0.0011001
2710.72	0.0012678
2720.37	0.0015436
2730.02	0.0016858
2739.66	0.0017895
2749.31	0.0015287
2758.96	0.0014516
2768.6	0.0014394
2778.25	0.0015067
2787.9	0.0016271
2797.54	0.00181
2807.19	0.00214
2816.84	0.00224
2826.48	0.00268
2836.13	0.00315
2845.77	0.00397
2855.42	0.00553
2865.07	0.00823
2874.71	0.01262
2884.36	0.0161
2894.01	0.0147
2903.65	0.01323
2913.3	0.01411
2922.95	0.01761
2932.59	0.02205
2942.24	0.02359
2951.89	0.02274
2961.53	0.02165
2971.18	0.01827
2980.83	0.01244
2990.47	0.00752
3000.12	0.0056
3009.77	0.00558
3019.41	0.00771
3029.06	0.01066
3038.71	0.01017
3048.35	0.01437
3058	0.02768
3067.64	0.03155
3077.29	0.01966
3086.94	0.011
3096.58	0.00638
3106.23	0.003
3115.88	0.0011801
3125.52	0.000691
3135.17	0.000521
3144.82	0.000491
3154.46	0.000235
3164.11	0.000453
3173.76	0.000375
3183.4	0.000362
3193.05	0.000258
3202.7	0.00023
3212.34	0.000273
3221.99	0.000191
3231.64	0.000272
3241.28	0.00028
3250.93	0.000227
3260.58	0.000212
3270.22	0.000229
3279.87	0.000123
3289.52	0.000285
3299.16	0.000169
3308.81	0.000123
3318.45	0.000404
3328.1	0.000409
3337.75	0.000362
3347.39	0.000295
3357.04	0.000358
3366.69	0.000417
3376.33	0.000341
3385.98	0.000355
3395.63	0.000629
3405.27	0.000381
3414.92	0.000472
3424.57	0.000381
3434.21	0.000519
3443.86	0.00058
3453.51	0.000457
3463.15	0.000584
3472.8	0.000567
3482.45	0.00055
3492.09	0.0007741
3501.74	0.00081867
3511.39	0.0007463
3521.03	0.0007809
3530.68	0.00084527
3540.33	0.0007288
3549.97	0.00083743
3559.62	0.0009317
3569.26	0.000800246
3578.91	0.0013342
3588.56	0.0013792
3598.2	0.0013501
3607.85	0.0017853
3617.5	0.00229
3627.14	0.00403
3636.79	0.00763
3646.44	0.00774
3656.08	0.00586
3665.73	0.00579
3675.38	0.00486
3685.02	0.00364
3694.67	0.00226
3704.32	0.0015715
3713.96	0.0014388
3723.61	0.0012507
3733.26	0.0011552
3742.9	0.0011522
3752.55	0.0012105
3762.2	0.0010368
3771.84	0.0009391
3781.49	0.00088612
3791.13	0.0009006
3800.78	0.00085826
3810.43	0.000991
3820.07	0.00082887
3829.72	0.00083087
3839.37	0.0009099
3849.01	0.000664
3858.66	0.00083402
3868.31	0.0007246
3877.95	0.0007027
3887.6	0.000751
3897.25	0.0007776
3906.89	0.0009651
3916.54	0.0009496
3926.19	0.0011486
3935.83	0.0009498
3945.48	0.0010919
3955.13	0.0009879
3964.77	0.0012821
3974.42	0.0012439
3984.07	0.0011461
3993.71	0.0011518
