Infrared Spectrum: ACETYL-O-ANISIDINE
Formula: C9 H11 N O2
CAS: 93-26-5
State: SOLID (MINERAL OIL MULL)
Class: COBLENTZ
Instrument: Not specified, most likely a prism, grating, or hybrid spectrometer.
Sampling: TRANSMISSION
Resolution: 4
Origin: DOW CHEMICAL COMPANY
MICROMETERS	TRANSMITTANCE
2.041	0.637
2.0821	0.641
2.12319	0.642
2.16429	0.649
2.20539	0.652
2.24649	0.651
2.28758	0.647
2.32868	0.652
2.36978	0.666
2.41087	0.676
2.45197	0.685
2.49307	0.697
2.53417	0.705
2.57526	0.711
2.61636	0.719
2.65746	0.726
2.69855	0.731
2.73965	0.735
2.78075	0.735
2.82185	0.738
2.86294	0.74
2.90404	0.738
2.94514	0.717
2.98624	0.656
3.02733	0.487
3.06843	0.273
3.10953	0.312
3.15062	0.4
3.19172	0.451
3.23282	0.468
3.27392	0.417
3.31501	0.376
3.35611	0.408
3.39721	0.184
3.4383	0.136
3.4794	0.307
3.5205	0.464
3.5616	0.702
3.60269	0.772
3.64379	0.798
3.68489	0.801
3.72598	0.806
3.76708	0.817
3.80818	0.82
3.84928	0.827
3.89037	0.823
3.93147	0.829
3.97257	0.835
4.01366	0.844
4.05476	0.849
4.09586	0.856
4.13696	0.863
4.17805	0.854
4.21915	0.856
4.26025	0.864
4.30135	0.882
4.34244	0.88
4.38354	0.875
4.42464	0.876
4.46573	0.883
4.50683	0.887
4.54793	0.888
4.58903	0.888
4.63012	0.888
4.67122	0.888
4.71232	0.894
4.75341	0.902
4.79451	0.905
4.83561	0.9
4.87671	0.899
4.9178	0.88
4.9589	0.9
5	0.912
5.04109	0.909
5.08219	0.916
5.12329	0.919
5.16439	0.912
5.20548	0.905
5.24658	0.917
5.28768	0.9
5.32877	0.909
5.36987	0.921
5.41097	0.916
5.45207	0.916
5.49316	0.921
5.53426	0.907
5.57536	0.909
5.61646	0.912
5.65755	0.892
5.69865	0.883
5.73975	0.882
5.78084	0.873
5.82194	0.844
5.86304	0.788
5.90414	0.699
5.94523	0.579
5.98633	0.317
6.02743	0.148
6.06852	0.158
6.10962	0.343
6.15072	0.458
6.19182	0.418
6.23291	0.27
6.27401	0.247
6.31511	0.55
6.3562	0.507
6.3973	0.417
6.4384	0.15
6.4795	0.07
6.52059	0.218
6.56169	0.333
6.60279	0.464
6.64388	0.434
6.68498	0.148
6.72608	0.343
6.76718	0.388
6.80827	0.128
6.84937	0.138
6.89047	0.338
6.93157	0.386
6.97266	0.316
7.01376	0.441
7.05486	0.526
7.09595	0.569
7.13705	0.577
7.17815	0.581
7.21925	0.523
7.26034	0.396
7.30144	0.251
7.34254	0.384
7.38363	0.637
7.42473	0.724
7.46583	0.736
7.50693	0.582
7.54802	0.348
7.58912	0.468
7.63022	0.625
7.67131	0.639
7.71241	0.449
7.75351	0.283
7.79461	0.439
7.8357	0.353
7.8768	0.258
7.9179	0.34
7.95899	0.252
8.00009	0.17
8.04119	0.458
8.08229	0.629
8.12338	0.622
8.16448	0.463
8.20558	0.526
8.24667	0.683
8.28777	0.776
8.32887	0.818
8.36997	0.834
8.41106	0.818
8.45216	0.697
8.49326	0.735
8.53436	0.846
8.57545	0.823
8.61655	0.788
8.65765	0.832
8.69874	0.876
8.73984	0.875
8.78094	0.876
8.82204	0.875
8.86313	0.839
8.90423	0.702
8.94533	0.454
8.98642	0.577
9.02752	0.839
9.06862	0.875
9.10972	0.894
9.15081	0.904
9.19191	0.904
9.23301	0.907
9.2741	0.909
9.3152	0.909
9.3563	0.905
9.3974	0.904
9.43849	0.897
9.47959	0.878
9.52069	0.733
9.56178	0.588
9.60288	0.731
9.64398	0.728
9.68508	0.601
9.72617	0.324
9.76727	0.21
9.80837	0.326
9.84947	0.594
9.89056	0.709
9.93166	0.796
9.97276	0.835
10.0139	0.852
10.055	0.876
10.096	0.887
10.1371	0.894
10.1782	0.899
10.2193	0.9
10.2604	0.883
10.3015	0.827
10.3426	0.695
10.3837	0.649
10.4248	0.731
10.4659	0.801
10.507	0.875
10.5481	0.892
10.5892	0.902
10.6303	0.909
10.6714	0.911
10.7125	0.911
10.7536	0.894
10.7947	0.834
10.8358	0.747
10.8769	0.856
10.918	0.911
10.9591	0.921
11.0002	0.933
11.0413	0.931
11.0824	0.931
11.1235	0.931
11.1646	0.935
11.2057	0.935
11.2468	0.935
11.2879	0.938
11.329	0.94
11.3701	0.941
11.4112	0.941
11.4523	0.938
11.4934	0.945
11.5344	0.94
11.5755	0.929
11.6166	0.904
11.6577	0.863
11.6988	0.854
11.7399	0.902
11.781	0.916
11.8221	0.888
11.8632	0.846
11.9043	0.854
11.9454	0.904
11.9865	0.917
12.0276	0.923
12.0687	0.923
12.1098	0.923
12.1509	0.921
12.192	0.919
12.2331	0.917
12.2742	0.916
12.3153	0.911
12.3564	0.907
12.3975	0.902
12.4386	0.899
12.4797	0.895
12.5208	0.89
12.5619	0.882
12.603	0.871
12.6441	0.856
12.6852	0.805
12.7263	0.723
12.7674	0.647
12.8085	0.673
12.8496	0.755
12.8907	0.786
12.9318	0.793
12.9729	0.791
13.0139	0.777
13.055	0.757
13.0961	0.717
13.1372	0.663
13.1783	0.586
13.2194	0.478
13.2605	0.319
13.3016	0.16
13.3427	0.107
13.3838	0.222
13.4249	0.423
13.466	0.526
13.5071	0.589
13.5482	0.623
13.5893	0.637
13.6304	0.642
13.6715	0.642
13.7126	0.632
13.7537	0.611
13.7948	0.588
13.8359	0.564
13.877	0.54
13.9181	0.511
13.9592	0.488
14.0003	0.471
14.0414	0.468
14.0825	0.47
14.1236	0.475
14.1647	0.494
14.2058	0.509
14.2469	0.528
14.288	0.54
14.3291	0.553
14.3702	0.565
14.4113	0.57
14.4523	0.574
14.4934	0.577
14.5345	0.579
14.5756	0.581
14.6167	0.581
14.6578	0.577
14.6989	0.572
14.74	0.57
14.7811	0.567
14.8222	0.562
14.8633	0.555
14.9044	0.548
14.9455	0.538
14.9866	0.529
15.0277	0.516
15.0688	0.485
15.1099	0.458
15.151	0.423
15.1921	0.388
15.2332	0.369
15.2743	0.364
15.3154	0.365
15.3565	0.381
15.3976	0.394
15.4387	0.4
15.4798	0.403
15.5209	0.408
15.562	0.406
15.6031	0.403
15.6442	0.4
15.6853	0.393
15.7264	0.389
15.7675	0.382
15.8086	0.377
15.8497	0.372
15.8908	0.372
