Infrared Spectrum: 2-Naphthyl benzoate
Formula: C 17 H 12 O 2
CAS: 93-44-7
State: gas
Origin: EPA-IR VAPOR PHASE LIBRARY
1/CM	ABSORBANCE
549.8	0.0010544
559.445	0.001225
569.09	0.0010584
578.734	0.001627
588.379	0.0011539
598.024	0.001577
607.669	0.002457
617.313	0.005777
626.958	0.006357
636.603	0.004587
646.248	0.004447
655.893	0.007377
665.537	0.012187
675.182	0.023727
684.827	0.021497
694.472	0.047027
704.116	0.069967
713.761	0.049327
723.406	0.028307
733.051	0.029827
742.695	0.034657
752.34	0.021157
761.985	0.009727
771.63	0.007157
781.275	0.008697
790.919	0.019847
800.564	0.030167
810.209	0.018647
819.854	0.010537
829.498	0.007977
839.143	0.008767
848.788	0.011167
858.433	0.013157
868.078	0.011827
877.722	0.014797
887.367	0.024437
897.012	0.020207
906.657	0.009347
916.301	0.006207
925.946	0.006787
935.591	0.008317
945.236	0.010437
954.88	0.024387
964.525	0.021217
974.17	0.007727
983.815	0.007307
993.46	0.009457
1003.1	0.013467
1012.75	0.030277
1022.39	0.109977
1032.04	0.035417
1041.68	0.036607
1051.33	0.140477
1060.97	0.171287
1070.62	0.102647
1080.26	0.054737
1089.91	0.020317
1099.55	0.014927
1109.2	0.019807
1118.84	0.081627
1128.49	0.078727
1138.13	0.043467
1147.78	0.082527
1157.42	0.266347
1167.07	0.102427
1176.71	0.087327
1186.36	0.051997
1196	0.066937
1205.64	0.158237
1215.29	0.116467
1224.93	0.142507
1234.58	0.354787
1244.22	0.256277
1253.87	0.293627
1263.51	0.258327
1273.16	0.111707
1282.8	0.039427
1292.45	0.026327
1302.09	0.023477
1311.74	0.029707
1321.38	0.025047
1331.03	0.019277
1340.67	0.018387
1350.32	0.019657
1359.96	0.022567
1369.61	0.017987
1379.25	0.015267
1388.9	0.011887
1398.54	0.008837
1408.18	0.007837
1417.83	0.007647
1427.47	0.007687
1437.12	0.010467
1446.76	0.023657
1456.41	0.034877
1466.05	0.038167
1475.7	0.020737
1485.34	0.016517
1494.99	0.021557
1504.63	0.035087
1514.28	0.039007
1523.92	0.010267
1533.57	0.007757
1543.21	0.006427
1552.86	0.006637
1562.5	0.008547
1572.15	0.013257
1581.79	0.020787
1591.44	0.027827
1601.08	0.047347
1610.73	0.016337
1620.37	0.016417
1630.01	0.028687
1639.66	0.016547
1649.3	0.008517
1658.95	0.006607
1668.59	0.006537
1678.24	0.007387
1687.88	0.008737
1697.53	0.008897
1707.17	0.010057
1716.82	0.012927
1726.46	0.018657
1736.11	0.031997
1745.75	0.067497
1755.4	0.148217
1765.04	0.145417
1774.69	0.052357
1784.33	0.019177
1793.98	0.011737
1803.62	0.010727
1813.27	0.010017
1822.91	0.006697
1832.55	0.005287
1842.2	0.003937
1851.84	0.003517
1861.49	0.003407
1871.13	0.003797
1880.78	0.005387
1890.42	0.006957
1900.07	0.006667
1909.71	0.006867
1919.36	0.006427
1929	0.005077
1938.65	0.005967
1948.29	0.004767
1957.94	0.004187
1967.58	0.003947
1977.23	0.002817
1986.87	0.001977
1996.52	0.001857
2006.16	0.001867
2015.81	0.002147
2025.45	0.002217
2035.1	0.002077
2044.74	0.002297
2054.38	0.002627
2064.03	0.002487
2073.67	0.002467
2083.32	0.002907
2092.96	0.002647
2102.61	0.002617
2112.25	0.002907
2121.9	0.002667
2131.54	0.002217
2141.19	0.001817
2150.83	0.001687
2160.48	0.001527
2170.12	0.0014712
2179.77	0.0012941
2189.41	0.0011862
2199.06	0.0013159
2208.7	0.0010449
2218.35	0.0011748
2227.99	0.001108
2237.64	0.0012341
2247.28	0.0012527
2256.92	0.0012495
2266.57	0.001607
2276.21	0.002037
2285.86	0.002127
2295.5	0.001837
2305.15	0.002297
2314.79	0.002857
2324.44	0.002917
2334.08	0.002077
2343.73	0.001927
2353.37	0.001707
2363.02	0.001577
2372.66	0.0014252
2382.31	0.001308
2391.95	0.0012767
2401.6	0.0012131
2411.24	0.0010653
2420.89	0.0012184
2430.53	0.0010466
2440.18	0.0010348
2449.82	0.0009682
2459.47	0.0009572
2469.11	0.0008765
2478.75	0.0010498
2488.4	0.0013892
2498.04	0.0011891
2507.69	0.0011099
2517.33	0.0010096
2526.98	0.0008607
2536.62	0.0009357
2546.27	0.0009969
2555.91	0.0008505
2565.56	0.0010404
2575.2	0.0008806
2584.85	0.0010883
2594.49	0.0011393
2604.14	0.0010677
2613.78	0.0008288
2623.43	0.001072
2633.07	0.0007584
2642.72	0.0006979
2652.36	0.0007048
2662.01	0.00054319
2671.65	0.000507314
2681.29	0.0006396
2690.94	0.00053093
2700.58	0.000682
2710.23	0.0007907
2719.87	0.0006609
2729.52	0.0006196
2739.16	0.0007702
2748.81	0.0009019
2758.45	0.0008962
2768.1	0.0007652
2777.74	0.0006391
2787.39	0.0006973
2797.03	0.0006163
2806.68	0.000728
2816.32	0.0006873
2825.97	0.0008108
2835.61	0.0012813
2845.26	0.0013719
2854.9	0.0011875
2864.55	0.0014066
2874.19	0.0011111
2883.84	0.0010217
2893.48	0.0008741
2903.12	0.0009661
2912.77	0.0008992
2922.41	0.0009956
2932.06	0.0013264
2941.7	0.001557
2951.35	0.001747
2960.99	0.001857
2970.64	0.002227
2980.28	0.002647
2989.93	0.002707
2999.57	0.003387
3009.22	0.005107
3018.86	0.008357
3028.51	0.013497
3038.15	0.017647
3047.8	0.022077
3057.44	0.038537
3067.09	0.057657
3076.73	0.050707
3086.38	0.023417
3096.02	0.016717
3105.67	0.010397
3115.31	0.004657
3124.95	0.002097
3134.6	0.001381
3144.24	0.0013596
3153.89	0.0014001
3163.53	0.0013498
3173.18	0.0013895
3182.82	0.0009118
3192.47	0.0009954
3202.11	0.0006207
3211.76	0.0006378
3221.4	0.000639
3231.05	0.0004511
3240.69	0.0006955
3250.34	0.000176
3259.98	0.000307
3269.63	0.0004757
3279.27	0.000369
3288.92	7.8e-05
3298.56	0.000156
3308.21	0.000171
3317.85	0.000188
3327.49	0.0004858
3337.14	0.000477
3346.78	0.00050473
3356.43	0.0004731
3366.07	0.0004082
3375.72	0.0004741
3385.36	0.00054699
3395.01	0.00049909
3404.65	0.0004157
3414.3	0.0004104
3423.94	0.000184
3433.59	0.000253
3443.23	0.0004873
3452.88	0.0004944
3462.52	0.00035
3472.17	0.0006363
3481.81	0.0011175
3491.46	0.0012288
3501.1	0.001847
3510.75	0.001657
3520.39	0.0011383
3530.04	0.0012849
3539.68	0.0007125
3549.32	0.0007751
3558.97	0.00035
3568.61	0.000345
3578.26	0.00055938
3587.9	0.000115
3597.55	0.0004125
3607.19	0.000362
3616.84	0.00052724
3626.48	0.00038
3636.13	0.000388
3645.77	0.0004786
3655.42	0.0007767
3665.06	0.0004736
3674.71	0.0004634
3684.35	0.00054268
3694	0.00060449
3703.64	0.0006733
3713.29	0.000788
3722.93	0.0004108
3732.58	0.000321
3742.22	0.00060499
3751.86	0.000322
3761.51	0.000252
3771.15	0.000323
3780.8	0.00056041
3790.44	0.00056647
3800.09	0.0007067
3809.73	0.000375
3819.38	0.00060648
3829.02	0.0008146
3838.67	0.000362
3848.31	0.0004943
3857.96	0.0007027
3867.6	0.000283
3877.25	0.000276
3886.89	0.000264
3896.54	0.00037
3906.18	0.0005711
3915.83	0.000873
3925.47	0.000511853
3935.12	0.000387
3944.76	0.0006082
3954.41	0.000672
3964.05	0.0007536
3973.69	0.0007245
3983.34	0.00055049
3992.98	0.0011259
