Infrared Spectrum: N,N'-di-Beta-Naphthyl-p-phenylenediamine
Formula: C26 H20 N2
CAS: 93-46-9
State: SOLID (SPLIT MULL)
Class: COBLENTZ III
Instrument: DOW KBr FOREPRISM-GRATING
Instrument parameters: BLAZED AT 3.5, 12.0, 20.0 MICRON AND CHANGED AT 5.0, 7.5, 14.9 MICRON
Sampling: TRANSMISSION
Resolution: 2
Origin: DOW CHEMICAL COMPANY
1/CM	TRANSMITTANCE
3783.3	0.629
3774.39	0.6296
3765.47	0.6304
3756.56	0.6316
3747.64	0.6332
3738.73	0.6358
3729.81	0.6378
3720.9	0.6383
3711.99	0.6388
3703.07	0.6393
3694.16	0.6403
3685.24	0.6419
3676.33	0.6436
3667.42	0.6451
3658.5	0.6467
3649.59	0.648
3640.67	0.6489
3631.76	0.6496
3622.84	0.6499
3613.93	0.6501
3605.02	0.6498
3596.1	0.6499
3587.19	0.6496
3578.27	0.6474
3569.36	0.6442
3560.44	0.6463
3551.53	0.6485
3542.62	0.6478
3533.7	0.6469
3524.79	0.6474
3515.87	0.6478
3506.96	0.6485
3498.04	0.6473
3489.13	0.6475
3480.22	0.6511
3471.3	0.6532
3462.39	0.6542
3453.47	0.6548
3444.56	0.6558
3435.65	0.6591
3426.73	0.6612
3417.82	0.6578
3408.9	0.6018
3399.99	0.4709
3391.07	0.3448
3382.16	0.3605
3373.25	0.3953
3364.33	0.4063
3355.42	0.4942
3346.5	0.5342
3337.59	0.5691
3328.67	0.5929
3319.76	0.6078
3310.85	0.6179
3301.93	0.6269
3293.02	0.6355
3284.1	0.6428
3275.19	0.65
3266.27	0.6569
3257.36	0.6616
3248.45	0.6658
3239.53	0.6702
3230.62	0.6742
3221.7	0.6782
3212.79	0.6817
3203.88	0.6845
3194.96	0.6871
3186.05	0.6895
3177.13	0.6915
3168.22	0.6937
3159.3	0.6954
3150.39	0.6969
3141.48	0.6984
3132.56	0.7
3123.65	0.7016
3114.73	0.7028
3105.82	0.7038
3096.9	0.7034
3087.99	0.7018
3079.08	0.6992
3070.16	0.6798
3061.25	0.5991
3052.33	0.5752
3043.42	0.5851
3034.51	0.6506
3025.59	0.6564
3016.68	0.6484
3007.76	0.6758
2998.85	0.691
2989.93	0.6961
2981.02	0.6968
2972.11	0.6975
2963.19	0.7002
2954.28	0.7037
2945.36	0.7065
2936.45	0.7077
2927.53	0.7095
2918.62	0.7108
2909.71	0.7139
2900.79	0.7192
2891.88	0.7238
2882.96	0.7284
2874.05	0.7308
2865.13	0.7318
2856.22	0.7321
2847.31	0.7324
2838.39	0.7333
2829.48	0.7378
2820.56	0.7353
2811.65	0.7354
2802.74	0.7372
2793.82	0.7391
2784.91	0.7401
2775.99	0.7415
2767.08	0.7433
2758.16	0.7447
2749.25	0.746
2740.34	0.7474
2731.42	0.7486
2722.51	0.7492
2713.59	0.7499
2704.68	0.7505
2695.76	0.7508
2686.85	0.7521
2677.94	0.754
2669.02	0.7558
2660.11	0.7578
2651.19	0.7597
2642.28	0.7615
2633.37	0.7634
2624.45	0.7645
2615.54	0.7636
2606.62	0.7622
2597.71	0.7607
2588.79	0.7593
2579.88	0.759
2570.97	0.7587
2562.05	0.7585
2553.14	0.7588
2544.22	0.7592
2535.31	0.7596
2526.39	0.7605
2517.48	0.7612
2508.57	0.7621
2499.65	0.7633
2490.74	0.7648
2481.82	0.7661
2472.91	0.7675
2463.99	0.7689
2455.08	0.77
2446.17	0.771
2437.25	0.7715
2428.34	0.7722
2419.42	0.7728
2410.51	0.7738
2401.6	0.7751
2392.68	0.7759
2383.77	0.7783
2374.85	0.7845
2365.94	0.7855
2357.02	0.7839
2348.11	0.7828
2339.2	0.7832
2330.28	0.7821
2321.37	0.7807
2312.45	0.7805
2303.54	0.7804
2294.62	0.7805
2285.71	0.7828
2276.8	0.7869
2267.88	0.7908
2258.97	0.7945
2250.05	0.7974
2241.14	0.7984
2232.22	0.7994
2223.31	0.801
2214.4	0.8059
2205.48	0.8105
2196.57	0.8117
2187.65	0.8132
2178.74	0.8136
2169.83	0.8142
2160.91	0.8143
2152	0.8143
2143.08	0.8143
2134.17	0.8143
2125.25	0.8143
2116.34	0.8147
2107.43	0.8163
2098.51	0.8184
2089.6	0.8203
2080.68	0.8217
2071.77	0.8225
2062.85	0.8234
2053.94	0.8251
2045.03	0.8273
2036.11	0.8286
2027.2	0.8296
2018.28	0.8319
2009.37	0.8345
2000.46	0.8359
1991.54	0.8449
1982.63	0.8435
1973.71	0.8445
1964.8	0.846
1955.88	0.8456
1946.97	0.8418
1938.06	0.8351
1929.14	0.838
1920.23	0.8345
1911.31	0.834
1902.4	0.837
1893.48	0.84
1884.57	0.841
1875.66	0.8415
1866.74	0.8384
1857.83	0.8464
1848.91	0.8488
1840	0.8489
1831.08	0.8483
1822.17	0.8484
1813.26	0.8492
1804.34	0.8501
1795.43	0.8511
1786.51	0.8518
1777.6	0.8524
1768.69	0.852
1759.77	0.8484
1750.86	0.8462
1741.94	0.847
1733.03	0.848
1724.11	0.8491
1715.2	0.8497
1706.29	0.8503
1697.37	0.8514
1688.46	0.8515
1679.54	0.8514
1670.63	0.8554
1661.71	0.8531
1652.8	0.8542
1643.89	0.8452
1634.97	0.7543
1626.06	0.2347
1617.14	0.5961
1608.23	0.7053
1599.32	0.3111
1590.4	0.6155
1581.49	0.7619
1572.57	0.7534
1563.66	0.7983
1554.74	0.8223
1545.83	0.8257
1536.92	0.7056
1528	0.2997
1519.09	0.4381
1510.17	0.1358
1501.26	0.3123
1492.34	0.4983
1483.43	0.6612
1474.52	0.7417
1465.6	0.6469
1456.69	0.7559
1447.77	0.7736
1438.86	0.7316
1429.94	0.7802
1421.03	0.7915
1412.12	0.7929
1403.2	0.4795
1394.29	0.7437
1385.37	0.7625
1376.46	0.747
1367.55	0.7246
1358.63	0.6915
1349.72	0.6885
1340.8	0.6587
1331.89	0.607
1322.97	0.6677
1314.06	0.5708
1305.15	0.2905
1296.23	0.3821
1287.32	0.4735
1278.4	0.6331
1269.49	0.656
1260.57	0.6877
1251.66	0.7276
1242.75	0.7264
1233.83	0.4648
1224.92	0.63
1216	0.6954
1207.09	0.6972
1198.17	0.754
1189.26	0.769
1180.35	0.6252
1171.43	0.7206
1162.52	0.7526
1153.6	0.7573
1144.69	0.746
1135.78	0.7541
1126.86	0.7728
1117.95	0.7291
1109.03	0.7138
1100.12	0.7812
1091.2	0.7897
1082.29	0.7886
1073.38	0.7871
1064.46	0.7861
1055.55	0.7879
1046.63	0.7844
1037.72	0.7859
1028.8	0.7884
1019.89	0.789
1010.98	0.7314
1002.06	0.7725
993.148	0.7798
984.234	0.7861
975.319	0.7894
966.405	0.7712
957.491	0.6882
948.577	0.7152
939.662	0.7571
930.748	0.7855
921.834	0.7923
912.92	0.7933
904.005	0.8071
895.091	0.8104
886.177	0.8117
877.263	0.6269
868.349	0.8081
859.434	0.7351
850.52	0.5164
841.606	0.5752
832.692	0.5291
823.777	0.4749
814.863	0.2756
805.949	0.6621
797.035	0.7739
788.121	0.8069
779.206	0.8153
770.292	0.8074
761.378	0.7494
752.464	0.5843
743.549	0.6222
734.635	0.5977
725.721	0.8104
716.807	0.8402
707.893	0.8688
698.978	0.881
690.064	0.8862
681.15	0.889
672.236	0.8906
663.321	0.8786
654.407	0.8792
645.493	0.8391
636.579	0.8474
627.665	0.8585
618.75	0.8566
609.836	0.8351
600.922	0.8498
592.008	0.847
583.093	0.8426
574.179	0.8352
565.265	0.7926
556.351	0.8143
547.437	0.8181
538.522	0.8079
529.608	0.776
520.694	0.7748
511.78	0.6208
502.865	0.6162
493.951	0.7299
485.037	0.7358
476.123	0.2999
467.208	0.5133
458.294	0.6674
449.38	0.7098
440.466	0.7365
431.552	0.7399
422.637	0.7057
413.723	0.7024
404.809	0.7035
395.895	0.7047
386.98	0.7053
