Infrared Spectrum: ACETIC ACID, 3,4-DIMETHOXYPHENYL-
Formula: C10 H12 O4
CAS: 93-40-3
State: SOLID (SPLIT MULL)
Class: COBLENTZ III
Instrument: DOW KBr FOREPRISM-GRATING
Instrument parameters: BLAZED AT 3.5, 12.0, 20.0 MICRON AND CHANGED AT 5.0, 7.5, 14.9 MICRON
Sampling: TRANSMISSION
Resolution: 2
Origin: DOW CHEMICAL COMPANY
1/CM	TRANSMITTANCE
3800	0.8048
3791	0.8058
3782	0.8071
3773	0.8087
3764	0.8101
3755	0.813
3746	0.8175
3737	0.8064
3728	0.8101
3719	0.8147
3710	0.8153
3701	0.8158
3692	0.8165
3683	0.8191
3674	0.8246
3665	0.8264
3656	0.8128
3647	0.8207
3638	0.8231
3629	0.8215
3620	0.8203
3611	0.8191
3602	0.8225
3593	0.8239
3584	0.822
3575	0.8214
3566	0.8233
3557	0.8241
3548	0.8243
3539	0.825
3530	0.8264
3521	0.8281
3512	0.8295
3503	0.8292
3494	0.8299
3485	0.8289
3476	0.8304
3467	0.8265
3458	0.8294
3449	0.8377
3440	0.8325
3431	0.8342
3422	0.8355
3413	0.8354
3404	0.8346
3395	0.8338
3386	0.8331
3377	0.8318
3368	0.8295
3359	0.8228
3350	0.8161
3341	0.8108
3332	0.8093
3323	0.8087
3314	0.8071
3305	0.8036
3296	0.7986
3287	0.7935
3278	0.786
3269	0.7755
3260	0.7648
3251	0.7553
3242	0.7451
3233	0.7344
3224	0.7236
3215	0.7125
3206	0.7019
3197	0.693
3188	0.6841
3179	0.675
3170	0.6649
3161	0.6546
3152	0.6408
3143	0.6218
3134	0.6016
3125	0.5917
3116	0.5836
3107	0.5725
3098	0.5496
3089	0.529
3080	0.5132
3071	0.5065
3062	0.5002
3053	0.4908
3044	0.4823
3035	0.476
3026	0.4694
3017	0.4585
3008	0.4222
2999	0.4647
2990	0.4739
2981	0.4735
2972	0.4333
2963	0.3948
2954	0.4412
2945	0.396
2936	0.4042
2927	0.4467
2918	0.465
2909	0.4877
2900	0.5299
2891	0.5795
2882	0.596
2873	0.6103
2864	0.6221
2855	0.6301
2846	0.5455
2837	0.5577
2828	0.6511
2819	0.6734
2810	0.6803
2801	0.6867
2792	0.7015
2783	0.7143
2774	0.7265
2765	0.7375
2756	0.7461
2747	0.7531
2738	0.7574
2729	0.7597
2720	0.763
2711	0.7653
2702	0.7654
2693	0.764
2684	0.7556
2675	0.7453
2666	0.7324
2657	0.7174
2648	0.7156
2639	0.7287
2630	0.7442
2621	0.7621
2612	0.7736
2603	0.7765
2594	0.7817
2585	0.7868
2576	0.7911
2567	0.7921
2558	0.788
2549	0.785
2540	0.7811
2531	0.7787
2522	0.7803
2513	0.7861
2504	0.7924
2495	0.7998
2486	0.8078
2477	0.8161
2468	0.8239
2459	0.8297
2450	0.8339
2441	0.8365
2432	0.8378
2423	0.8377
2414	0.8364
2405	0.8339
2396	0.8334
2387	0.8407
2378	0.8421
2369	0.8377
2360	0.8349
2351	0.8392
2342	0.8366
2333	0.8454
2324	0.8406
2315	0.8454
2306	0.8486
2297	0.8456
2288	0.8397
2279	0.8418
2270	0.8445
2261	0.8473
2252	0.8507
2243	0.8548
2234	0.8552
2225	0.8589
2216	0.8625
2207	0.8603
2198	0.8586
2189	0.8588
2180	0.8634
2171	0.8645
2162	0.8638
2153	0.868
2144	0.8704
2135	0.8706
2126	0.8713
2117	0.8723
2108	0.8734
2099	0.8748
2090	0.8752
2081	0.8709
2072	0.865
2063	0.8704
2054	0.8754
2045	0.8704
2036	0.8591
2027	0.8623
2018	0.8692
2009	0.8752
2000	0.879
1991	0.8875
1982	0.8915
1973	0.8918
1964	0.8898
1955	0.8865
1946	0.8874
1937	0.8909
1928	0.8903
1919	0.8864
1910	0.8873
1901	0.8878
1892	0.8825
1883	0.8691
1874	0.8761
1865	0.8764
1856	0.8718
1847	0.8739
1838	0.876
1829	0.8718
1820	0.8795
1811	0.8821
1802	0.8781
1793	0.8717
1784	0.8658
1775	0.8584
1766	0.8557
1757	0.8311
1748	0.7771
1739	0.6676
1730	0.3836
1721	0.0448
1712	0.1107
1703	0.5167
1694	0.679
1685	0.7295
1676	0.7548
1667	0.7384
1658	0.6486
1649	0.4068
1640	0.5264
1631	0.6356
1622	0.7026
1613	0.6633
1604	0.7039
1595	0.4384
1586	0.7468
1577	0.8101
1568	0.8252
1559	0.828
1550	0.8167
1541	0.7962
1532	0.6778
1523	0.1499
1514	0.3447
1505	0.7085
1496	0.7612
1487	0.793
1478	0.6557
1469	0.3966
1460	0.6898
1451	0.2634
1442	0.6209
1433	0.6088
1424	0.5801
1415	0.6864
1406	0.6847
1397	0.6381
1388	0.7505
1379	0.7842
1370	0.8026
1361	0.8028
1352	0.7633
1343	0.5678
1334	0.6043
1325	0.7286
1316	0.7486
1307	0.7051
1298	0.4298
1289	0.3484
1280	0.1052
1271	0.054
1262	0.08
1253	0.38
1244	0.1092
1235	0.5816
1226	0.6958
1217	0.758
1208	0.7928
1199	0.8035
1190	0.583
1181	0.8142
1172	0.8094
1163	0.4612
1154	0.065
1145	0.3054
1136	0.5212
1127	0.7625
1118	0.846
1109	0.8785
1100	0.8949
1091	0.9042
1082	0.9092
1073	0.9123
1064	0.915
1055	0.9143
1046	0.8777
1037	0.4368
1028	0.5245
1019	0.3404
1010	0.8314
1001	0.8831
992	0.898
983	0.9044
974	0.8849
965	0.623
956	0.8404
947	0.8821
938	0.8641
929	0.8228
920	0.7518
911	0.6425
902	0.542
893	0.5033
884	0.6421
875	0.7411
866	0.711
857	0.81
848	0.8543
839	0.871
830	0.6539
821	0.8458
812	0.8633
803	0.5209
794	0.7736
785	0.8745
776	0.8636
767	0.5797
758	0.8489
749	0.8943
740	0.8992
731	0.8875
722	0.8618
713	0.9127
704	0.9188
695	0.6083
686	0.9109
677	0.9415
668	0.928
659	0.9242
650	0.9213
641	0.9068
632	0.4589
623	0.8574
614	0.873
605	0.7548
596	0.8773
587	0.9077
578	0.9118
569	0.9093
560	0.8994
551	0.8815
542	0.837
533	0.8783
524	0.8932
515	0.893
506	0.8916
497	0.8882
488	0.8778
479	0.8607
470	0.8285
461	0.7748
452	0.7557
