Infrared Spectrum: PHENOL, p-(2-NAPHTHYLAMINO)-
Formula: C16 H13 N O
CAS: 93-45-8
State: SOLID (SPLIT MULL), FLUOROLUBE FOR 3800-1335 CM^-^1, NUJOL FOR 1335-460 CM^-^1
Class: COBLENTZ
Instrument: DOW KBr FOREPRISM-GRATING
Instrument parameters: BLAZED AT 3.5, 12.0, 20.0 MICRON AND CHANGED AT 5.0, 7.5, 14.9 MICRON
Sampling: TRANSMISSION
Resolution: 2
Origin: DOW CHEMICAL COMPANY
1/CM	TRANSMITTANCE
438	0.0896
447	0.0903
456	0.0906
465	0.0933
474	0.0933
483	0.1015
492	0.1054
501	0.0983
510	0.1003
519	0.1115
528	0.1229
537	0.1286
546	0.1316
555	0.1322
564	0.1368
573	0.1382
582	0.1335
591	0.1199
600	0.1175
609	0.1276
618	0.1049
627	0.129
636	0.1505
645	0.1582
654	0.1718
663	0.1804
672	0.1878
681	0.1944
690	0.199
699	0.2001
708	0.2001
717	0.2006
726	0.1994
735	0.1608
744	0.1096
753	0.1866
762	0.1684
771	0.201
780	0.2527
789	0.2528
798	0.2572
807	0.1592
816	0.0735
825	0.0799
834	0.1384
843	0.2412
852	0.0946
861	0.2959
870	0.5619
879	0.4786
888	0.3564
897	0.6892
906	0.7222
915	0.7565
924	0.7884
933	0.8028
942	0.7671
951	0.6742
960	0.6425
969	0.7017
978	0.8168
987	0.85
996	0.8505
1005	0.8107
1014	0.7675
1023	0.7718
1032	0.7836
1041	0.7714
1050	0.7471
1059	0.7253
1068	0.6875
1077	0.6276
1086	0.549
1095	0.3938
1104	0.2256
1113	0.3553
1122	0.2556
1131	0.4135
1140	0.4257
1149	0.3047
1158	0.4173
1167	0.3982
1176	0.3416
1185	0.4581
1194	0.4681
1203	0.398
1212	0.3096
1221	0.3062
1230	0.2608
1239	0.1803
1248	0.1572
1257	0.2433
1266	0.494
1275	0.5056
1284	0.6482
1293	0.6189
1302	0.4202
1311	0.2041
1320	0.5646
1329	0.5221
1338	0.4464
1347	0.5048
1356	0.5135
1365	0.5232
1374	0.5992
1383	0.6291
1392	0.6265
1401	0.6134
1410	0.5381
1419	0.3808
1428	0.6295
1437	0.603
1446	0.5405
1455	0.5715
1464	0.5321
1473	0.574
1482	0.5606
1491	0.4805
1500	0.3458
1509	0.3
1518	0.1877
1527	0.3664
1536	0.542
1545	0.6202
1554	0.6304
1563	0.5996
1572	0.5469
1581	0.456
1590	0.3678
1599	0.2581
1608	0.2631
1617	0.2634
1626	0.1917
1635	0.1163
1644	0.1943
1653	0.2393
1662	0.2721
1671	0.3249
1680	0.389
1689	0.4455
1698	0.5112
1707	0.5687
1716	0.6266
1725	0.6724
1734	0.7245
1743	0.7618
1752	0.7778
1761	0.7908
1770	0.8044
1779	0.8149
1788	0.8224
1797	0.828
1806	0.8325
1815	0.8345
1824	0.8294
1833	0.8216
1842	0.8186
1851	0.8192
1860	0.8119
1869	0.8024
1878	0.7875
1887	0.7885
1896	0.7941
1905	0.794
1914	0.7885
1923	0.7822
1932	0.778
1941	0.7761
1950	0.7781
1959	0.7828
1968	0.78
1977	0.7721
1986	0.7674
1995	0.7699
2004	0.7711
2013	0.7714
2022	0.7667
2031	0.7611
2040	0.7528
2049	0.7446
2058	0.7403
2067	0.7362
2076	0.7325
2085	0.7288
2094	0.7254
2103	0.7239
2112	0.7239
2121	0.7242
2130	0.7253
2139	0.726
2148	0.7264
2157	0.7268
2166	0.7269
2175	0.7271
2184	0.7276
2193	0.7285
2202	0.7292
2211	0.7304
2220	0.7317
2229	0.7325
2238	0.7328
2247	0.7325
2256	0.7298
2265	0.7282
2274	0.7267
2283	0.7261
2292	0.7265
2301	0.7272
2310	0.7299
2319	0.7318
2328	0.7318
2337	0.7311
2346	0.73
2355	0.7288
2364	0.7276
2373	0.7265
2382	0.7255
2391	0.7245
2400	0.7235
2409	0.7225
2418	0.7215
2427	0.7205
2436	0.7191
2445	0.7175
2454	0.7161
2463	0.7139
2472	0.7112
2481	0.7087
2490	0.7061
2499	0.704
2508	0.7019
2517	0.6998
2526	0.6971
2535	0.6946
2544	0.6919
2553	0.6894
2562	0.6868
2571	0.6843
2580	0.6815
2589	0.679
2598	0.6762
2607	0.6738
2616	0.6715
2625	0.6695
2634	0.6675
2643	0.6639
2652	0.6588
2661	0.6539
2670	0.6498
2679	0.6457
2688	0.6422
2697	0.6388
2706	0.6353
2715	0.6312
2724	0.6267
2733	0.6218
2742	0.617
2751	0.6121
2760	0.6068
2769	0.601
2778	0.5955
2787	0.589
2796	0.5822
2805	0.5753
2814	0.5678
2823	0.5583
2832	0.5479
2841	0.5375
2850	0.5274
2859	0.5173
2868	0.5058
2877	0.4938
2886	0.4832
2895	0.4725
2904	0.4615
2913	0.4503
2922	0.4392
2931	0.4284
2940	0.4193
2949	0.4144
2958	0.4056
2967	0.3899
2976	0.3752
2985	0.359
2994	0.3414
3003	0.323
3012	0.3053
3021	0.2873
3030	0.2656
3039	0.2527
3048	0.2476
3057	0.2178
3066	0.2237
3075	0.2203
3084	0.2117
3093	0.2022
3102	0.1889
3111	0.1679
3120	0.149
3129	0.137
3138	0.1258
3147	0.1153
3156	0.107
3165	0.0982
3174	0.0889
3183	0.0805
3192	0.0732
3201	0.0662
3210	0.0601
3219	0.0547
3228	0.0517
3237	0.0486
3246	0.0456
3255	0.043
3264	0.0404
3273	0.0383
3282	0.0362
3291	0.0341
3300	0.0323
3309	0.0304
3318	0.0285
3327	0.0268
3336	0.0261
3345	0.0253
3354	0.0245
3363	0.0238
3372	0.0236
3381	0.0233
3390	0.0231
3399	0.0228
3408	0.0226
3417	0.0224
3426	0.0223
3435	0.0223
3444	0.0223
3453	0.0232
3462	0.0241
3471	0.025
3480	0.0261
3489	0.0274
3498	0.0288
3507	0.0302
3516	0.0323
3525	0.0346
3534	0.037
3543	0.0401
3552	0.044
3561	0.0477
3570	0.0517
3579	0.0573
3588	0.0636
3597	0.071
3606	0.0785
3615	0.0869
3624	0.0993
3633	0.1205
3642	0.1424
3651	0.1673
3660	0.1951
3669	0.23
3678	0.2907
3687	0.3209
3696	0.3425
3705	0.36
3714	0.3754
3723	0.3856
3732	0.3907
3741	0.3945
3750	0.3982
3759	0.4021
3768	0.4052
3777	0.4078
3786	0.4099
3795	0.4114
