Infrared Spectrum: 2-Phenylpropionaldehyde
Formula: C 9 H 10 O
CAS: 93-53-8
State: gas
Origin: EPA-IR VAPOR PHASE LIBRARY
1/CM	ABSORBANCE
549.8	0.00324
559.445	0.00234
569.09	0.001
578.734	0.0009572
588.379	0.0009208
598.024	0.00115
607.669	0.00101
617.313	0.00132
626.958	0.00122
636.603	0.00159
646.248	0.00248
655.893	0.00346
665.537	0.00487
675.182	0.00763
684.827	0.01628
694.472	0.02772
704.116	0.02506
713.761	0.01417
723.406	0.00835
733.051	0.00756
742.695	0.01013
752.34	0.01351
761.985	0.01109
771.63	0.00633
781.275	0.0034
790.919	0.00199
800.564	0.00122
810.209	0.00124
819.854	0.00138
829.498	0.00181
839.143	0.00319
848.788	0.00519
858.433	0.00724
868.078	0.00768
877.722	0.00805
887.367	0.00804
897.012	0.00681
906.657	0.00561
916.301	0.00426
925.946	0.00285
935.591	0.00227
945.236	0.00171
954.88	0.00148
964.525	0.00127
974.17	0.00127
983.815	0.00157
993.46	0.00226
1003.1	0.00396
1012.75	0.00988
1022.39	0.01305
1032.04	0.00783
1041.68	0.00432
1051.33	0.00366
1060.97	0.00564
1070.62	0.00526
1080.26	0.0037
1089.91	0.00288
1099.55	0.00299
1109.2	0.00346
1118.84	0.00362
1128.49	0.00261
1138.13	0.00217
1147.78	0.0017
1157.42	0.0008961
1167.07	0.00106
1176.71	0.00109
1186.36	0.00127
1196	0.00129
1205.64	0.0013
1215.29	0.0009267
1224.93	0.0012
1234.58	0.0013
1244.22	0.00122
1253.87	0.0009887
1263.51	0.00103
1273.16	0.00164
1282.8	0.00193
1292.45	0.00244
1302.09	0.00227
1311.74	0.00201
1321.38	0.00193
1331.03	0.00184
1340.67	0.00174
1350.32	0.00156
1359.96	0.0019
1369.61	0.003
1379.25	0.0048
1388.9	0.00566
1398.54	0.00445
1408.18	0.00275
1417.83	0.00234
1427.47	0.00294
1437.12	0.00508
1446.76	0.00878
1456.41	0.01042
1466.05	0.00823
1475.7	0.00623
1485.34	0.00985
1494.99	0.01202
1504.63	0.00794
1514.28	0.00331
1523.92	0.00184
1533.57	0.00146
1543.21	0.00131
1552.86	0.00105
1562.5	0.00119
1572.15	0.00183
1581.79	0.00329
1591.44	0.00609
1601.08	0.00754
1610.73	0.00491
1620.37	0.00206
1630.01	0.00153
1639.66	0.00163
1649.3	0.00204
1658.95	0.00278
1668.59	0.00347
1678.24	0.0044
1687.88	0.00607
1697.53	0.00879
1707.17	0.01366
1716.82	0.02194
1726.46	0.04183
1736.11	0.07631
1745.75	0.08751
1755.4	0.05315
1765.04	0.02009
1774.69	0.01142
1784.33	0.00859
1793.98	0.00707
1803.62	0.00526
1813.27	0.00325
1822.91	0.00218
1832.55	0.00163
1842.2	0.00145
1851.84	0.00169
1861.49	0.002
1871.13	0.00219
1880.78	0.00202
1890.42	0.00161
1900.07	0.00102
1909.71	0.0009276
1919.36	0.00111
1929	0.00162
1938.65	0.00207
1948.29	0.00226
1957.94	0.00191
1967.58	0.00124
1977.23	0.0008264
1986.87	0.0006782
1996.52	0.0006514
2006.16	0.0006949
2015.81	0.0005612
2025.45	0.0004992
2035.1	0.0004438
2044.74	0.0003635
2054.38	0.0004483
2064.03	0.0003483
2073.67	0.0004091
2083.32	0.0003567
2092.96	0.0002696
2102.61	0.0003985
2112.25	0.0003184
2121.9	0.0003866
2131.54	0.0004026
2141.19	0.0003952
2150.83	0.0003649
2160.48	0.00038
2170.12	0.0004441
2179.77	0.0004147
2189.41	0.0004012
2199.06	0.00035
2208.7	0.0003721
2218.35	0.0003621
2227.99	0.0003539
2237.64	0.0004426
2247.28	0.0003874
2256.92	0.0003765
2266.57	0.0003709
2276.21	0.0004134
2285.86	0.0004905
2295.5	0.0003594
2305.15	0.0005374
2314.79	0.0006038
2324.44	0.0006406
2334.08	0.0005652
2343.73	0.0004787
2353.37	0.0005734
2363.02	0.0005324
2372.66	0.0005857
2382.31	0.0004889
2391.95	0.0004598
2401.6	0.0004388
2411.24	0.0003948
2420.89	0.0004173
2430.53	0.0004545
2440.18	0.0005047
2449.82	0.0004426
2459.47	0.000465
2469.11	0.0004446
2478.75	0.0004295
2488.4	0.0004491
2498.04	0.0005518
2507.69	0.0004348
2517.33	0.0005308
2526.98	0.0004898
2536.62	0.0004509
2546.27	0.0005804
2555.91	0.0006598
2565.56	0.0006759
2575.2	0.0008655
2584.85	0.000864
2594.49	0.00105
2604.14	0.00109
2613.78	0.00131
2623.43	0.00152
2633.07	0.00215
2642.72	0.00275
2652.36	0.00343
2662.01	0.00422
2671.65	0.00538
2681.29	0.00729
2690.94	0.01041
2700.58	0.01402
2710.23	0.01612
2719.87	0.0144
2729.52	0.01112
2739.16	0.00896
2748.81	0.00797
2758.45	0.00756
2768.1	0.00757
2777.74	0.00812
2787.39	0.01038
2797.03	0.01491
2806.68	0.01777
2816.32	0.01463
2825.97	0.00971
2835.61	0.0067
2845.26	0.00556
2854.9	0.00566
2864.55	0.00653
2874.19	0.00898
2883.84	0.0114
2893.48	0.0106
2903.12	0.00835
2912.77	0.00706
2922.41	0.00716
2932.06	0.00906
2941.7	0.01113
2951.35	0.01021
2960.99	0.00877
2970.64	0.01273
2980.28	0.02127
2989.93	0.02004
2999.57	0.01088
3009.22	0.00672
3018.86	0.00915
3028.51	0.0146
3038.15	0.01638
3047.8	0.01232
3057.44	0.01137
3067.09	0.01728
3076.73	0.01857
3086.38	0.01355
3096.02	0.00965
3105.67	0.00662
3115.31	0.00412
3124.95	0.00233
3134.6	0.00155
3144.24	0.00125
3153.89	0.00103
3163.53	0.00109
3173.18	0.0008512
3182.82	0.0007528
3192.47	0.0007972
3202.11	0.0006591
3211.76	0.0006642
3221.4	0.0004495
3231.05	0.0003464
3240.69	0.0004036
3250.34	0.0002357
3259.98	0.0005215
3269.63	0.0004294
3279.27	0.000338
3288.92	0.0005453
3298.56	0.0004304
3308.21	0.0003249
3317.85	0.0002451
3327.49	0.0005809
3337.14	0.0003971
3346.78	0.0003259
3356.43	0.0004013
3366.07	0.0003893
3375.72	0.0002786
3385.36	0.0005209
3395.01	0.0004919
3404.65	0.0006416
3414.3	0.0006283
3423.94	0.0007251
3433.59	0.0011
3443.23	0.00143
3452.88	0.00196
3462.52	0.00196
3472.17	0.00174
3481.81	0.00102
3491.46	0.0009506
3501.1	0.0007704
3510.75	0.0005492
3520.39	0.0005253
3530.04	0.0004217
3539.68	0.0004914
3549.32	0.0004465
3558.97	0.0003298
3568.61	0.0004196
3578.26	0.0004116
3587.9	0.0004607
3597.55	0.0005664
3607.19	0.0003425
3616.84	0.0003476
3626.48	0.0005466
3636.13	0.0005954
3645.77	0.0004964
3655.42	0.0004952
3665.06	0.0007048
3674.71	0.0005962
3684.35	0.0004972
3694	0.0002502
3703.64	0.0003539
3713.29	0.0003371
3722.93	0.0004254
3732.58	0.0004237
3742.22	0.0004032
3751.86	0.0003288
3761.51	0.0003088
3771.15	0.0004936
3780.8	0.0003528
3790.44	0.0004953
3800.09	0.0004197
3809.73	0.0005016
3819.38	0.0006033
3829.02	0.0003338
3838.67	0.0006228
3848.31	0.0003969
3857.96	0.0003927
3867.6	0.0004428
3877.25	0.0004816
3886.89	0.0004109
3896.54	0.000565
3906.18	0.0004103
3915.83	0.0002647
3925.47	0.0004721
3935.12	0.0002706
3944.76	0.0004945
3954.41	0.0005761
3964.05	0.0004645
3973.69	0.0003925
3983.34	0.0004164
3992.98	0.0006371
