Infrared Spectrum: 2-Methoxy-4-methylphenol
Formula: C 8 H 10 O 2
CAS: 93-51-6
State: gas
Origin: EPA-IR VAPOR PHASE LIBRARY
1/CM	ABSORBANCE
549.8	0.007731
559.445	0.008031
569.09	0.005511
578.734	0.004991
588.379	0.006011
598.024	0.004511
607.669	0.003311
617.313	0.001901
626.958	0.001481
636.603	0.0010064
646.248	0.0010356
655.893	0.0008572
665.537	0.0010863
675.182	0.0011176
684.827	0.0011987
694.472	0.0011415
704.116	0.001681
713.761	0.002401
723.406	0.002691
733.051	0.002201
742.695	0.002561
752.34	0.003391
761.985	0.004831
771.63	0.008821
781.275	0.018141
790.919	0.026861
800.564	0.030401
810.209	0.037281
819.854	0.018151
829.498	0.009041
839.143	0.007711
848.788	0.006911
858.433	0.005361
868.078	0.003701
877.722	0.003161
887.367	0.003091
897.012	0.003511
906.657	0.004961
916.301	0.007201
925.946	0.006501
935.591	0.003961
945.236	0.003071
954.88	0.002961
964.525	0.002991
974.17	0.003901
983.815	0.005201
993.46	0.006131
1003.1	0.007411
1012.75	0.012371
1022.39	0.023391
1032.04	0.032301
1041.68	0.030961
1051.33	0.021341
1060.97	0.010031
1070.62	0.006121
1080.26	0.004891
1089.91	0.005421
1099.55	0.008121
1109.2	0.018541
1118.84	0.031301
1128.49	0.033211
1138.13	0.033661
1147.78	0.039321
1157.42	0.034971
1167.07	0.026181
1176.71	0.026741
1186.36	0.031941
1196	0.040841
1205.64	0.043871
1215.29	0.044471
1224.93	0.056131
1234.58	0.073581
1244.22	0.080011
1253.87	0.078281
1263.51	0.100711
1273.16	0.110421
1282.8	0.072741
1292.45	0.033061
1302.09	0.014891
1311.74	0.010051
1321.38	0.008691
1331.03	0.008741
1340.67	0.012251
1350.32	0.021481
1359.96	0.028521
1369.61	0.025131
1379.25	0.014851
1388.9	0.008321
1398.54	0.007011
1408.18	0.010041
1417.83	0.017121
1427.47	0.021951
1437.12	0.019461
1446.76	0.017341
1456.41	0.021661
1466.05	0.024741
1475.7	0.022401
1485.34	0.021691
1494.99	0.041881
1504.63	0.101731
1514.28	0.139191
1523.92	0.094081
1533.57	0.026081
1543.21	0.010061
1552.86	0.006951
1562.5	0.005991
1572.15	0.005951
1581.79	0.007381
1591.44	0.011171
1601.08	0.015411
1610.73	0.015791
1620.37	0.011701
1630.01	0.006691
1639.66	0.003251
1649.3	0.002521
1658.95	0.002391
1668.59	0.002391
1678.24	0.002321
1687.88	0.002081
1697.53	0.002001
1707.17	0.001901
1716.82	0.001711
1726.46	0.001741
1736.11	0.001651
1745.75	0.001471
1755.4	0.001311
1765.04	0.0011835
1774.69	0.0011504
1784.33	0.0010128
1793.98	0.0009591
1803.62	0.000988
1813.27	0.0009524
1822.91	0.001261
1832.55	0.001611
1842.2	0.002201
1851.84	0.002771
1861.49	0.002541
1871.13	0.001581
1880.78	0.0010248
1890.42	0.0009494
1900.07	0.0010192
1909.71	0.0010928
1919.36	0.0011559
1929	0.0011004
1938.65	0.0011144
1948.29	0.0011571
1957.94	0.0010668
1967.58	0.0009713
1977.23	0.0009752
1986.87	0.0009926
1996.52	0.0009893
2006.16	0.0009889
2015.81	0.001125
2025.45	0.001351
2035.1	0.001601
2044.74	0.001861
2054.38	0.002091
2064.03	0.002171
2073.67	0.001791
2083.32	0.001311
2092.96	0.0009746
2102.61	0.0007196
2112.25	0.000603
2121.9	0.000639
2131.54	0.0007066
2141.19	0.0008063
2150.83	0.0009597
2160.48	0.0009426
2170.12	0.0009157
2179.77	0.0009634
2189.41	0.0010254
2199.06	0.000903
2208.7	0.0008047
2218.35	0.0005998
2227.99	0.0005425
2237.64	0.0005182
2247.28	0.0005201
2256.92	0.0005476
2266.57	0.0006793
2276.21	0.0008425
2285.86	0.000968
2295.5	0.0011304
2305.15	0.001231
2314.79	0.0010819
2324.44	0.0008786
2334.08	0.0007298
2343.73	0.0007762
2353.37	0.0008737
2363.02	0.0008847
2372.66	0.0008548
2382.31	0.0010531
2391.95	0.0011274
2401.6	0.001174
2411.24	0.0010427
2420.89	0.0010331
2430.53	0.0009456
2440.18	0.000862
2449.82	0.0008668
2459.47	0.0009612
2469.11	0.001311
2478.75	0.001341
2488.4	0.001401
2498.04	0.001471
2507.69	0.001541
2517.33	0.001411
2526.98	0.001231
2536.62	0.0011679
2546.27	0.0011313
2555.91	0.0009898
2565.56	0.0007949
2575.2	0.0006627
2584.85	0.000649
2594.49	0.0007573
2604.14	0.0008824
2613.78	0.0010689
2623.43	0.0012004
2633.07	0.0011761
2642.72	0.0010393
2652.36	0.0008096
2662.01	0.0007288
2671.65	0.0006622
2681.29	0.0005565
2690.94	0.0006911
2700.58	0.0007089
2710.23	0.0007901
2719.87	0.0009893
2729.52	0.001341
2739.16	0.001641
2748.81	0.001661
2758.45	0.001391
2768.1	0.001331
2777.74	0.001411
2787.39	0.001751
2797.03	0.002151
2806.68	0.002801
2816.32	0.003881
2825.97	0.005261
2835.61	0.008521
2845.26	0.012901
2854.9	0.014491
2864.55	0.014951
2874.19	0.016441
2883.84	0.015941
2893.48	0.013431
2903.12	0.013881
2912.77	0.018361
2922.41	0.025961
2932.06	0.031171
2941.7	0.032651
2951.35	0.029411
2960.99	0.024761
2970.64	0.018091
2980.28	0.014611
2989.93	0.014971
2999.57	0.020361
3009.22	0.022201
3018.86	0.017921
3028.51	0.014661
3038.15	0.016351
3047.8	0.017781
3057.44	0.016011
3067.09	0.011661
3076.73	0.007031
3086.38	0.004031
3096.02	0.002911
3105.67	0.002591
3115.31	0.002331
3124.95	0.001981
3134.6	0.001821
3144.24	0.001421
3153.89	0.0010731
3163.53	0.00083
3173.18	0.0006434
3182.82	0.000658
3192.47	0.0006261
3202.11	0.0006588
3211.76	0.0006472
3221.4	0.0004454
3231.05	0.000553
3240.69	0.0004662
3250.34	0.0004982
3259.98	0.0004222
3269.63	0.0006352
3279.27	0.0009419
3288.92	0.000777
3298.56	0.0007067
3308.21	0.0005879
3317.85	0.0005838
3327.49	0.000384
3337.14	0.0004045
3346.78	0.00028596
3356.43	0.0003591
3366.07	0.0003317
3375.72	0.0003647
3385.36	0.0003289
3395.01	0.0004002
3404.65	0.0003897
3414.3	0.00026423
3423.94	0.00023204
3433.59	0.0003363
3443.23	4.2e-05
3452.88	0.00028722
3462.52	0.0004455
3472.17	0.00029351
3481.81	0.0003634
3491.46	0.0005524
3501.1	0.0003303
3510.75	0.0004623
3520.39	0.0005431
3530.04	0.0010456
3539.68	0.001261
3549.32	0.001711
3558.97	0.003351
3568.61	0.008731
3578.26	0.029611
3587.9	0.054371
3597.55	0.049531
3607.19	0.021301
3616.84	0.005691
3626.48	0.002621
3636.13	0.002021
3645.77	0.002581
3655.42	0.002171
3665.06	0.001221
3674.71	0.0004747
3684.35	0.0004435
3694	0.0005905
3703.64	0.0004609
3713.29	0.0005756
3722.93	0.0003697
3732.58	0.0003527
3742.22	0.0005297
3751.86	0.0004624
3761.51	0.0004149
3771.15	0.0005395
3780.8	0.0004661
3790.44	0.000503
3800.09	0.0003746
3809.73	0.0003772
3819.38	0.0003771
3829.02	0.0005592
3838.67	0.00030091
3848.31	0.0003571
3857.96	0.00053
3867.6	0.0006817
3877.25	0.0007195
3886.89	0.0008556
3896.54	0.0008676
3906.18	0.0006354
3915.83	0.0004315
3925.47	0.0006523
3935.12	0.0004069
3944.76	0.0006113
3954.41	0.000654
3964.05	0.0008029
3973.69	0.0006324
3983.34	0.0006147
3992.98	0.0007322
