Infrared Spectrum: Silvex acid
Formula: C 9 H 7 Cl 3 O 3
CAS: 93-72-1
State: gas
Instrument: HP-GC/MS/IRD
Origin: NIST Mass Spectrometry Data Center
1/CM	ABSORBANCE
550	0.001546
562	0.001086
574	0.001377
586	0.001465
598	0.001265
610	0.001233
622	0.001019
634	0.000706
646	0.000373
658	0.000249
670	0.000682
682	0.001613
694	0.000349
706	0.000126
718	0.000209
730	0.0007
742	0.001198
754	0.00161
766	0.001044
778	0.000503
790	0.000254
802	0.000189
814	0.000214
826	0.000148
838	0.000133
850	0.000158
862	0.000252
874	0.00113
886	0.001001
898	0.000608
910	0.000146
922	1.6e-05
934	4.1e-05
946	0.00022
958	0.0007
970	0.000448
982	0.000117
994	0.00022
1006	0.000427
1018	0.001047
1030	0.001714
1042	0.002038
1054	0.002051
1066	0.003505
1078	0.008143
1090	0.009473
1102	0.006865
1114	0.004457
1126	0.005114
1138	0.004079
1150	0.002558
1162	0.002333
1174	0.00211
1186	0.001557
1198	0.001165
1210	0.001111
1222	0.001907
1234	0.003977
1246	0.004042
1258	0.002644
1270	0.002256
1282	0.001814
1294	0.001406
1306	0.001525
1318	0.002231
1330	0.002916
1342	0.003394
1354	0.004242
1366	0.002262
1378	0.001814
1390	0.00149
1402	0.000848
1414	0.000714
1426	0.000916
1438	0.002062
1450	0.006213
1462	0.01
1474	0.006612
1486	0.003508
1498	0.001367
1510	0.000693
1522	0.000376
1534	0.000315
1546	0.000347
1558	0.000384
1570	0.000616
1582	0.001118
1594	0.000545
1606	0.00013
1618	7.5e-05
1630	0.000104
1642	8.1e-05
1654	8e-05
1666	7.3e-05
1678	7e-05
1690	0.000101
1702	0.000173
1714	0.000282
1726	0.000505
1738	0.000895
1750	0.001539
1762	0.00263
1774	0.00518
1786	0.005753
1798	0.006422
1810	0.004617
1822	0.001769
1834	0.00085
1846	0.000476
1858	0.000302
1870	0.00016
1882	0.0001
1894	5.8e-05
1906	4.6e-05
1918	4e-05
1930	5.3e-05
1942	3.4e-05
1954	2e-05
1966	3.9e-05
1978	5e-05
1990	5.6e-05
2002	4.5e-05
2014	3.9e-05
2026	3.9e-05
2038	2.7e-05
2050	3.3e-05
2062	3.2e-05
2074	1.6e-05
2086	5e-06
2098	2.1e-05
2110	4.4e-05
2122	9e-06
2134	3.3e-05
2146	7.4e-05
2158	5.8e-05
2170	6.7e-05
2182	7.1e-05
2194	6.7e-05
2206	5.4e-05
2218	6.1e-05
2230	6.8e-05
2242	6.3e-05
2254	6.2e-05
2266	3.4e-05
2278	8.3e-05
2290	6.5e-05
2302	7.8e-05
2314	0.000126
2326	0.000147
2338	0.000134
2350	0.000138
2362	0.000197
2374	0.000149
2386	6.3e-05
2398	7.1e-05
2410	5.5e-05
2422	7.2e-05
2434	5.7e-05
2446	5.2e-05
2458	4.8e-05
2470	7.9e-05
2482	0.000118
2494	8.6e-05
2506	8.1e-05
2518	7.9e-05
2530	6.4e-05
2542	4.4e-05
2554	6.5e-05
2566	5.5e-05
2578	4.9e-05
2590	8.2e-05
2602	1.9e-05
2614	7.5e-05
2626	5.5e-05
2638	3e-05
2650	8.6e-05
2662	5.2e-05
2674	7e-05
2686	3.2e-05
2698	6.1e-05
2710	7.8e-05
2722	8.4e-05
2734	5.7e-05
2746	6.6e-05
2758	7.2e-05
2770	6.8e-05
2782	0.000117
2794	0.0001
2806	8.6e-05
2818	9e-05
2830	6.8e-05
2842	9.3e-05
2854	7e-06
2866	0.000127
2878	8.1e-05
2890	0.000247
2902	0.00025
2914	0.000216
2926	0.000337
2938	0.000463
2950	0.000654
2962	0.000321
2974	0.000291
2986	0.000391
2998	0.000805
3010	0.000653
3022	0.000281
3034	0.000177
3046	0.000114
3058	0.000114
3070	0.000115
3082	0.000202
3094	0.000168
3106	5.5e-05
3118	0.000137
3130	9.6e-05
3142	8.9e-05
3154	0.000109
3166	9.2e-05
3178	3.5e-05
3190	7.1e-05
3202	5e-05
3214	4.5e-05
3226	0.000113
3238	4.8e-05
3250	8.1e-05
3262	8.2e-05
3274	7e-05
3286	7.3e-05
3298	0.000117
3310	5.2e-05
3322	6.7e-05
3334	9.9e-05
3346	6.1e-05
3358	0.000132
3370	9.2e-05
3382	0.000122
3394	8.8e-05
3406	5.4e-05
3418	8.7e-05
3430	0.000129
3442	0.000122
3454	0.000121
3466	0.000191
3478	0.000263
3490	0.000335
3502	0.000531
3514	0.001003
3526	0.001028
3538	0.000784
3550	0.000838
3562	0.001915
3574	0.003863
3586	0.001125
3598	0.000493
3610	0.000275
3622	0.000205
3634	0.000176
3646	0.000169
3658	0.00018
3670	0.000199
3682	0.000156
3694	0.000127
3706	0.000225
3718	0.000182
3730	0.000185
3742	0.000239
3754	0.000162
3766	0.000199
3778	0.000144
3790	0.000173
3802	0.000154
3814	0.000187
3826	0.000205
3838	0.000179
