Infrared Spectrum: 2,4,5-Trichlorophenoxyacetic acid
Formula: C 8 H 5 Cl 3 O 3
CAS: 93-76-5
State: gas
Origin: EPA-IR VAPOR PHASE LIBRARY
1/CM	ABSORBANCE
549.8	0.001688
559.445	0.001578
569.09	0.002158
578.734	0.003608
588.379	0.003598
598.024	0.003848
607.669	0.003998
617.313	0.004008
626.958	0.003728
636.603	0.002998
646.248	0.002368
655.893	0.002228
665.537	0.002688
675.182	0.005148
684.827	0.004608
694.472	0.001698
704.116	0.001498
713.761	0.001748
723.406	0.002738
733.051	0.004168
742.695	0.003468
752.34	0.003048
761.985	0.002818
771.63	0.001518
781.275	0.0009858
790.919	0.0009732
800.564	0.0009491
810.209	0.0008224
819.854	0.0008425
829.498	0.0010575
839.143	0.001388
848.788	0.001418
858.433	0.001618
868.078	0.002258
877.722	0.003738
887.367	0.002878
897.012	0.001438
906.657	0.0010464
916.301	0.0009855
925.946	0.0011018
935.591	0.0011563
945.236	0.0009319
954.88	0.0008281
964.525	0.0008833
974.17	0.0010775
983.815	0.001398
993.46	0.001598
1003.1	0.001698
1012.75	0.002268
1022.39	0.002928
1032.04	0.004218
1041.68	0.006608
1051.33	0.009048
1060.97	0.010708
1070.62	0.010258
1080.26	0.015958
1089.91	0.017528
1099.55	0.008718
1109.2	0.007218
1118.84	0.013948
1128.49	0.017378
1138.13	0.011118
1147.78	0.007848
1157.42	0.006418
1167.07	0.005238
1176.71	0.003748
1186.36	0.002868
1196	0.002298
1205.64	0.002338
1215.29	0.002938
1224.93	0.004968
1234.58	0.007578
1244.22	0.007218
1253.87	0.004438
1263.51	0.003548
1273.16	0.004798
1282.8	0.004838
1292.45	0.003418
1302.09	0.003018
1311.74	0.003768
1321.38	0.005158
1331.03	0.007148
1340.67	0.008278
1350.32	0.009298
1359.96	0.007718
1369.61	0.004848
1379.25	0.003298
1388.9	0.002968
1398.54	0.002648
1408.18	0.002228
1417.83	0.002298
1427.47	0.003388
1437.12	0.006528
1446.76	0.011148
1456.41	0.017618
1466.05	0.021188
1475.7	0.016218
1485.34	0.010178
1494.99	0.004438
1504.63	0.002738
1514.28	0.001798
1523.92	0.0013018
1533.57	0.0012343
1543.21	0.0012669
1552.86	0.0012649
1562.5	0.001408
1572.15	0.001988
1581.79	0.002898
1591.44	0.001988
1601.08	0.0005971
1610.73	0.0002618
1620.37	0.000244
1630.01	0.00025
1639.66	0.000251
1649.3	0.000295
1658.95	0.00040885
1668.59	0.00036819
1678.24	0.0004046
1687.88	0.000366095
1697.53	0.00043231
1707.17	0.0006534
1716.82	0.0006974
1726.46	0.0011682
1736.11	0.001698
1745.75	0.002628
1755.4	0.003978
1765.04	0.005448
1774.69	0.009008
1784.33	0.014858
1793.98	0.013188
1803.62	0.016358
1813.27	0.014288
1822.91	0.007518
1832.55	0.003838
1842.2	0.002278
1851.84	0.001418
1861.49	0.0009429
1871.13	0.000588
1880.78	0.0004899
1890.42	0.0004782
1900.07	0.0004035
1909.71	0.0002915
1919.36	0.0003233
1929	0.0003359
1938.65	0.0002997
1948.29	0.00036952
1957.94	0.00037733
1967.58	0.0003446
1977.23	0.000357121
1986.87	0.0003368
1996.52	0.0003454
2006.16	0.00037373
2015.81	0.0003099
2025.45	0.000257
2035.1	0.0002844
2044.74	0.0002679
2054.38	0.0003175
2064.03	0.0003083
2073.67	0.0002893
2083.32	0.0002966
2092.96	0.000357697
2102.61	0.0002709
2112.25	0.0002911
2121.9	0.00038808
2131.54	0.00034909
2141.19	0.00036928
2150.83	0.0004018
2160.48	0.00040117
2170.12	0.0003339
2179.77	0.00038453
2189.41	0.00037606
2199.06	0.0004652
2208.7	0.0004642
2218.35	0.00039849
2227.99	0.00042986
2237.64	0.0003398
2247.28	0.00042408
2256.92	0.00044192
2266.57	0.00037112
2276.21	0.000366172
2285.86	0.00040281
2295.5	0.0003167
2305.15	0.00040995
2314.79	0.0004644
2324.44	0.00035622
2334.08	0.00043361
2343.73	0.00045789
2353.37	0.00038183
2363.02	0.00040804
2372.66	0.000378
2382.31	0.0003143
2391.95	0.0002598
2401.6	0.0003357
2411.24	0.0003478
2420.89	0.0002713
2430.53	0.0003312
2440.18	0.0002692
2449.82	0.000364188
2459.47	0.0003025
2469.11	0.00039752
2478.75	0.00036848
2488.4	0.00038611
2498.04	0.0004904
2507.69	0.00035607
2517.33	0.0003822
2526.98	0.0003257
2536.62	0.00037842
2546.27	0.00044685
2555.91	0.00044845
2565.56	0.0003157
2575.2	0.000253
2584.85	0.00036917
2594.49	0.00037984
2604.14	0.0003329
2613.78	0.0002866
2623.43	0.0003024
2633.07	0.00038162
2642.72	0.00045083
2652.36	0.00037012
2662.01	0.00035547
2671.65	0.00038486
2681.29	0.0003062
2690.94	0.00038194
2700.58	0.00038506
2710.23	0.00039291
2719.87	0.0003812
2729.52	0.0003279
2739.16	0.00038831
2748.81	0.00035395
2758.45	0.0003537
2768.1	0.00043463
2777.74	0.0003046
2787.39	0.0006055
2797.03	0.00056
2806.68	0.0005499
2816.32	0.0005762
2825.97	0.0005021
2835.61	0.00044492
2845.26	0.0005148
2854.9	0.0004748
2864.55	0.0006213
2874.19	0.0006442
2883.84	0.0005705
2893.48	0.0005488
2903.12	0.0006115
2912.77	0.0008286
2922.41	0.0009295
2932.06	0.0013158
2941.7	0.001678
2951.35	0.001458
2960.99	0.0010871
2970.64	0.0009744
2980.28	0.0009273
2989.93	0.0007643
2999.57	0.0005612
3009.22	0.0004639
3018.86	0.0005289
3028.51	0.0004927
3038.15	0.00036981
3047.8	0.0004876
3057.44	0.0004892
3067.09	0.0004759
3076.73	0.0003334
3086.38	0.0005243
3096.02	0.0005267
3105.67	0.0007009
3115.31	0.0003065
3124.95	0.000283
3134.6	0.00043848
3144.24	0.00037872
3153.89	0.000228
3163.53	0.00035301
3173.18	0.00041667
3182.82	0.000107
3192.47	0.000227
3202.11	0.000235
3211.76	0.000232
3221.4	0.000227
3231.05	0.00040636
3240.69	0.00039968
3250.34	0.0003332
3259.98	0.00041794
3269.63	0.0005046
3279.27	0.000169
3288.92	7.2e-05
3298.56	0.00039468
3308.21	0.00041008
3317.85	0.000361609
3327.49	0.0004811
3337.14	0.00039002
3346.78	0.00041367
3356.43	0.000216
3366.07	0.000184
3375.72	0.00040516
3385.36	0.00039066
3395.01	0.0003079
3404.65	5.7e-05
3414.3	0.000187
3423.94	0.000224
3433.59	0.0002722
3443.23	0.000365025
3452.88	0.000302
3462.52	0.0003111
3472.17	0.00042242
3481.81	0.0006872
3491.46	0.00039197
3501.1	0.0006399
3510.75	0.001358
3520.39	0.001708
3530.04	0.002668
3539.68	0.002258
3549.32	0.001858
3558.97	0.002398
3568.61	0.006818
3578.26	0.008938
3587.9	0.003188
3597.55	0.001438
3607.19	0.0006788
3616.84	0.000764
3626.48	0.0004868
3636.13	0.0002801
3645.77	0.0002988
3655.42	0.0004811
3665.06	0.000207
3674.71	0.0003102
3684.35	0.00040818
3694	0.0005046
3703.64	0.00015
3713.29	0.0003079
3722.93	0.0003279
3732.58	0.00038342
3742.22	0.0004644
3751.86	0.000225
3761.51	0.0003267
3771.15	0.00037285
3780.8	0.000225
3790.44	0.0002982
3800.09	0.000359966
3809.73	0.0005283
3819.38	0.0004628
3829.02	0.000261
3838.67	0.00044777
3848.31	0.0005022
3857.96	0.0002676
3867.6	0.000256
3877.25	0.00016
3886.89	0.000179
3896.54	0.00039433
3906.18	0.000146
3915.83	0.000201
3925.47	0.000195
3935.12	0.0005756
3944.76	0.0003247
3954.41	0.00041445
3964.05	0.0004706
3973.69	0.00037581
3983.34	0.0003887
3992.98	0.00042239
