Infrared Spectrum: Oleic diethanolamide
Formula: C 22 H 43 N O 3
CAS: 93-83-4
State: gas
Origin: EPA-IR VAPOR PHASE LIBRARY
1/CM	ABSORBANCE
549.8	0.0005456
559.445	0.0007422
569.09	0.000311
578.734	0.000373
588.379	0.000165
598.024	0.0005487
607.669	0.0003974
617.313	0.000217
626.958	0.000585
636.603	0.0003654
646.248	2.3e-05
655.893	0.000281
665.537	0.0004126
675.182	0.000305
684.827	0.0003527
694.472	0.0008121
704.116	0.0008161
713.761	0.000872
723.406	0.0008115
733.051	0.0009689
742.695	0.0005899
752.34	0.0006399
761.985	0.0005756
771.63	0.0005976
781.275	0.0005917
790.919	0.0006331
800.564	0.000269
810.209	0.00047269
819.854	0.0007483
829.498	0.0003978
839.143	0.00043023
848.788	0.0007295
858.433	0.0005272
868.078	0.00046004
877.722	0.0003491
887.367	0.0005747
897.012	0.000374
906.657	0.0005627
916.301	0.00044656
925.946	0.0006409
935.591	0.0007132
945.236	0.0007112
954.88	0.0007874
964.525	0.0008659
974.17	0.0008144
983.815	0.0007744
993.46	0.000808
1003.1	0.0008251
1012.75	0.0010056
1022.39	0.0009706
1032.04	0.001474
1041.68	0.001312
1051.33	0.0010307
1060.97	0.0006159
1070.62	0.0011102
1080.26	0.0011577
1089.91	0.000676
1099.55	0.0012453
1109.2	0.001714
1118.84	0.003064
1128.49	0.002134
1138.13	0.001025
1147.78	0.00045321
1157.42	0.0006434
1167.07	0.000413828
1176.71	0.00040907
1186.36	0.0006945
1196	0.0009464
1205.64	0.0014022
1215.29	0.001754
1224.93	0.002034
1234.58	0.001744
1244.22	0.0014059
1253.87	0.0010594
1263.51	0.0013386
1273.16	0.001584
1282.8	0.0010725
1292.45	0.000966
1302.09	0.0008505
1311.74	0.0007905
1321.38	0.0006885
1331.03	0.0007313
1340.67	0.0008415
1350.32	0.0010994
1359.96	0.0013318
1369.61	0.0011672
1379.25	0.0013075
1388.9	0.001644
1398.54	0.002384
1408.18	0.003284
1417.83	0.003294
1427.47	0.002284
1437.12	0.001834
1446.76	0.001974
1456.41	0.002324
1466.05	0.001974
1475.7	0.0012518
1485.34	0.0009768
1494.99	0.0008625
1504.63	0.0006664
1514.28	0.000721
1523.92	0.0006615
1533.57	0.0005854
1543.21	0.000602
1552.86	0.0006436
1562.5	0.000601
1572.15	0.0004039
1581.79	0.0005208
1591.44	0.0005297
1601.08	0.0005906
1610.73	0.0005562
1620.37	0.00047476
1630.01	0.0006998
1639.66	0.0006895
1649.3	0.0011186
1658.95	0.001814
1668.59	0.004074
1678.24	0.006834
1687.88	0.004574
1697.53	0.001934
1707.17	0.0008677
1716.82	0.0008447
1726.46	0.0005946
1736.11	0.000577
1745.75	0.0005944
1755.4	0.00046109
1765.04	0.0005069
1774.69	0.0004037
1784.33	0.00047082
1793.98	0.0003807
1803.62	0.0004379
1813.27	0.0003524
1822.91	0.00045012
1832.55	0.0003453
1842.2	0.000421839
1851.84	0.00046157
1861.49	0.00046785
1871.13	0.000421595
1880.78	0.00045352
1890.42	0.00046126
1900.07	0.00049382
1909.71	0.00046172
1919.36	0.0003566
1929	0.0004885
1938.65	0.0003933
1948.29	0.00048261
1957.94	0.0005182
1967.58	0.00047046
1977.23	0.0004551
1986.87	0.00049251
1996.52	0.00044745
2006.16	0.00048134
2015.81	0.00042477
2025.45	0.00044497
2035.1	0.00048699
2044.74	0.00047719
2054.38	0.00046435
2064.03	0.00048248
2073.67	0.0004398
2083.32	0.00046207
2092.96	0.00046482
2102.61	0.00043791
2112.25	0.00049879
2121.9	0.0005419
2131.54	0.000413452
2141.19	0.0005241
2150.83	0.0005463
2160.48	0.0005149
2170.12	0.0005905
2179.77	0.00050548
2189.41	0.0005253
2199.06	0.0005205
2208.7	0.0005553
2218.35	0.0005714
2227.99	0.00046346
2237.64	0.00049219
2247.28	0.0005162
2256.92	0.00045683
2266.57	0.0006173
2276.21	0.00050401
2285.86	0.0005681
2295.5	0.00048345
2305.15	0.0006121
2314.79	0.00049414
2324.44	0.00050375
2334.08	0.0005906
2343.73	0.00049716
2353.37	0.0005826
2363.02	0.0005459
2372.66	0.0005334
2382.31	0.0005531
2391.95	0.0006185
2401.6	0.0005257
2411.24	0.0005726
2420.89	0.0005362
2430.53	0.0006061
2440.18	0.0005764
2449.82	0.0005426
2459.47	0.0005692
2469.11	0.000565
2478.75	0.0005215
2488.4	0.000642
2498.04	0.0005367
2507.69	0.00045368
2517.33	0.0006669
2526.98	0.000614
2536.62	0.00051199
2546.27	0.0006433
2555.91	0.0005532
2565.56	0.0006041
2575.2	0.0005921
2584.85	0.0006277
2594.49	0.000696
2604.14	0.0007023
2613.78	0.0007222
2623.43	0.0006773
2633.07	0.0006252
2642.72	0.0006062
2652.36	0.0006884
2662.01	0.0007064
2671.65	0.0006565
2681.29	0.0008372
2690.94	0.000663
2700.58	0.000835
2710.23	0.0009163
2719.87	0.0008852
2729.52	0.000673
2739.16	0.0007881
2748.81	0.0008806
2758.45	0.0008562
2768.1	0.0008541
2777.74	0.0008263
2787.39	0.0010295
2797.03	0.0008968
2806.68	0.000961
2816.32	0.0010378
2825.97	0.0012901
2835.61	0.001744
2845.26	0.002734
2854.9	0.004964
2864.55	0.006414
2874.19	0.004644
2883.84	0.003884
2893.48	0.003834
2903.12	0.004664
2912.77	0.005914
2922.41	0.008594
2932.06	0.011464
2941.7	0.008824
2951.35	0.005864
2960.99	0.004954
2970.64	0.005564
2980.28	0.003554
2989.93	0.002254
2999.57	0.002164
3009.22	0.002384
3018.86	0.002004
3028.51	0.0011559
3038.15	0.0009126
3047.8	0.0008822
3057.44	0.0007426
3067.09	0.0007814
3076.73	0.0007908
3086.38	0.0008093
3096.02	0.0007292
3105.67	0.000753
3115.31	0.0008047
3124.95	0.0007513
3134.6	0.0007609
3144.24	0.0005787
3153.89	0.0007666
3163.53	0.0006884
3173.18	0.000784
3182.82	0.0007056
3192.47	0.0005403
3202.11	0.0005683
3211.76	0.0007459
3221.4	0.0007985
3231.05	0.0008283
3240.69	0.0008313
3250.34	0.0007352
3259.98	0.0009517
3269.63	0.00046856
3279.27	0.0005975
3288.92	0.0008023
3298.56	0.0007113
3308.21	0.0008552
3317.85	0.0009262
3327.49	0.0005814
3337.14	0.0008853
3346.78	0.0009121
3356.43	0.0005685
3366.07	0.0006906
3375.72	0.0006293
3385.36	0.000828
3395.01	0.000923
3404.65	0.0007371
3414.3	0.0006772
3423.94	0.0005593
3433.59	0.0005796
3443.23	0.0006369
3452.88	0.0007133
3462.52	0.00049351
3472.17	0.0007593
3481.81	0.0007419
3491.46	0.0005863
3501.1	0.0006492
3510.75	0.0009113
3520.39	0.0006306
3530.04	0.0008145
3539.68	0.0007156
3549.32	0.00050672
3558.97	0.0008436
3568.61	0.0006689
3578.26	0.0007744
3587.9	0.0006857
3597.55	0.0007623
3607.19	0.0007384
3616.84	0.0006543
3626.48	0.0007137
3636.13	0.000655
3645.77	0.0009384
3655.42	0.0009013
3665.06	0.0007921
3674.71	0.0007273
3684.35	0.0007683
3694	0.0007595
3703.64	0.0007353
3713.29	0.0008333
3722.93	0.000962
3732.58	0.0009432
3742.22	0.0008514
3751.86	0.0008415
3761.51	0.0008732
3771.15	0.0009443
3780.8	0.0005965
3790.44	0.0007072
3800.09	0.0007676
3809.73	0.0007632
3819.38	0.0009593
3829.02	0.0006531
3838.67	0.0008638
3848.31	0.0007323
3857.96	0.0007454
3867.6	0.0009831
3877.25	0.0009688
3886.89	0.0006572
3896.54	0.0011065
3906.18	0.0009388
3915.83	0.0007291
3925.47	0.000417521
3935.12	0.0006464
3944.76	0.0005637
3954.41	0.0006574
3964.05	0.0005159
3973.69	0.0006773
3983.34	0.0006746
3992.98	0.0010964
