Infrared Spectrum: 1-Phenyl-1,3-butanedione
Formula: C 10 H 10 O 2
CAS: 93-91-4
State: gas
Instrument: HP-GC/MS/IRD
Origin: NIST Mass Spectrometry Data Center
1/CM	ABSORBANCE
550	0.0021896
562	0.0013532
574	0.0009588
586	0.0011356
598	0.0014586
610	0.0006936
622	0.0002448
634	2.72e-05
646	0.000306
658	0.0011254
670	0.0029852
682	0.0052802
694	0.0062526
706	0.0043282
718	0.002533
730	0.0027438
742	0.0053142
754	0.009214
766	0.007174
778	0.0024004
790	0.0008126
802	0.0005542
814	0.0008058
826	0.0014858
838	0.0028526
850	0.001921
862	0.0012648
874	0.0013668
886	0.001547
898	0.001819
910	0.0022712
922	0.0026792
934	0.0029478
946	0.0031246
958	0.0034816
970	0.0039202
982	0.0038522
994	0.0032606
1006	0.0025534
1018	0.0030056
1030	0.0033932
1042	0.0020808
1054	0.0026962
1066	0.0031892
1078	0.002754
1090	0.0023086
1102	0.0019176
1114	0.0016864
1126	0.0019142
1138	0.0026044
1150	0.0037026
1162	0.0045492
1174	0.0072896
1186	0.0108188
1198	0.0117538
1210	0.0094146
1222	0.0069768
1234	0.0073984
1246	0.0089318
1258	0.0123318
1270	0.0154054
1282	0.013923
1294	0.0114036
1306	0.009843
1318	0.0090984
1330	0.00782
1342	0.0074324
1354	0.008041
1366	0.0088162
1378	0.0076976
1390	0.007072
1402	0.0076024
1414	0.0087822
1426	0.0095642
1438	0.0099586
1450	0.0107474
1462	0.010132
1474	0.009792
1486	0.0097444
1498	0.0087448
1510	0.0085306
1522	0.009282
1534	0.0105876
1546	0.0127602
1558	0.0158406
1570	0.0198322
1582	0.0238952
1594	0.0289986
1606	0.033609
1618	0.0319736
1630	0.0252246
1642	0.0185368
1654	0.0135014
1666	0.0107848
1678	0.0118218
1690	0.016031
1702	0.0143582
1714	0.0089386
1726	0.0083844
1738	0.0084864
1750	0.0057528
1762	0.0036448
1774	0.0024208
1786	0.0017034
1798	0.0015266
1810	0.001292
1822	0.0008942
1834	0.0007242
1846	0.000646
1858	0.0006562
1870	0.0006664
1882	0.0007684
1894	0.0008738
1906	0.0008262
1918	0.0006052
1930	0.0004692
1942	0.000493
1954	0.0006018
1966	0.0005644
1978	0.0003196
1990	0.0001938
2002	0.0001802
2014	0.0001768
2026	0.0001326
2038	7.82e-05
2050	6.12e-05
2062	5.78e-05
2074	4.08e-05
2086	5.1e-05
2098	9.86e-05
2110	9.18e-05
2122	5.44e-05
2134	5.44e-05
2146	1.36e-05
2158	0
2170	6.8e-06
2182	0
2194	2.38e-05
2206	3.06e-05
2218	3.4e-05
2230	4.42e-05
2242	3.06e-05
2254	4.08e-05
2266	6.46e-05
2278	8.5e-05
2290	7.82e-05
2302	7.14e-05
2314	0.000153
2326	0.0002108
2338	0.0001904
2350	0.0001768
2362	0.00017
2374	0.0001428
2386	0.0001496
2398	0.00017
2410	0.0001904
2422	0.0001972
2434	0.0001972
2446	0.0002176
2458	0.0002108
2470	0.0002312
2482	0.0002414
2494	0.0002754
2506	0.0002958
2518	0.0003196
2530	0.0003536
2542	0.0003672
2554	0.00034
2566	0.0003162
2578	0.0003264
2590	0.0003298
2602	0.000374
2614	0.0004046
2626	0.0004114
2638	0.000442
2650	0.0004862
2662	0.000493
2674	0.0005032
2686	0.0005406
2698	0.000544
2710	0.0005338
2722	0.0005576
2734	0.000612
2746	0.0005916
2758	0.0006256
2770	0.0006426
2782	0.0006426
2794	0.0006766
2806	0.00068
2818	0.0006834
2830	0.000748
2842	0.0007922
2854	0.0008398
2866	0.0008296
2878	0.000833
2890	0.0008058
2902	0.0008806
2914	0.00102
2926	0.0013328
2938	0.001564
2950	0.0013124
2962	0.0012172
2974	0.0012648
2986	0.001258
2998	0.0013668
3010	0.001666
3022	0.0020808
3034	0.002669
3046	0.0031586
3058	0.0037808
3070	0.0056406
3082	0.0048178
3094	0.0033354
3106	0.0021964
3118	0.0012886
3130	0.000816
3142	0.00068
3154	0.0006494
3166	0.0005882
3178	0.0004828
3190	0.0004692
3202	0.0004624
3214	0.0004386
3226	0.000408
3238	0.0003774
3250	0.0003638
3262	0.0003196
3274	0.0003264
3286	0.0002754
3298	0.0002414
3310	0.0002176
3322	0.0001904
3334	0.0001802
3346	0.0002176
3358	0.0002244
3370	0.0002924
3382	0.0002754
3394	0.0002414
3406	0.0001938
3418	0.0002142
3430	0.0001938
3442	0.0001904
3454	0.0002006
3466	0.00017
3478	0.0001462
3490	0.0001258
3502	7.82e-05
3514	7.82e-05
3526	7.82e-05
3538	3.74e-05
3550	6.8e-05
3562	8.84e-05
3574	9.52e-05
3586	9.52e-05
3598	7.48e-05
3610	9.52e-05
3622	2.72e-05
3634	0.0001054
3646	0.000136
3658	0.0001122
3670	9.18e-05
3682	0.0001598
3694	0.0001836
3706	0.000153
3718	0.000119
3730	0.0001734
3742	0.0002006
3754	0.0001836
3766	0.0001904
3778	0.0001734
3790	0.0001802
3802	0.0001666
3814	0.0002108
3826	0.0002006
3838	0.0002176
