Infrared Spectrum: .alpha.-Methylbenzyl ether
Formula: C 16 H 18 O
CAS: 93-96-9
State: gas
Instrument: HP-GC/MS/IRD
Origin: NIST Mass Spectrometry Data Center
1/CM	ABSORBANCE
550	0.0017112
562	0.0007199
574	5.98e-05
586	0.000276
598	0.0001426
610	0.0005566
622	0.0009545
634	0.0017687
646	0.0005727
658	0.0007705
670	0.0011477
682	0.0019343
694	0.011109
706	0.0097267
718	0.0024426
730	0.0017687
742	0.0021321
754	0.0063135
766	0.0059501
778	0.001196
790	0.0006486
802	0.0004991
814	0.0003059
826	0.0001955
838	0.0003197
850	0.000483
862	0.0005336
874	0.0003312
886	0.0002369
898	0.0004324
910	0.0009085
922	0.0006877
934	0.0013455
946	0.002898
958	0.0017158
970	0.0007153
982	0.0007912
994	0.0012006
1006	0.0016698
1018	0.0037858
1030	0.0063135
1042	0.0032246
1054	0.0032821
1066	0.0072243
1078	0.0155411
1090	0.023
1102	0.0138391
1114	0.007084
1126	0.0040917
1138	0.0023
1150	0.0011891
1162	0.0008188
1174	0.0011776
1186	0.0012029
1198	0.0036639
1210	0.0032177
1222	0.0011132
1234	0.000506
1246	0.000483
1258	0.0007475
1270	0.0018814
1282	0.0027738
1294	0.0035443
1306	0.003036
1318	0.0029348
1330	0.0022517
1342	0.0023437
1354	0.0032982
1366	0.0036616
1378	0.0042757
1390	0.0013478
1402	0.0005773
1414	0.0005474
1426	0.0006371
1438	0.0014214
1450	0.0037559
1462	0.0022724
1474	0.0008372
1486	0.0020792
1498	0.0020125
1510	0.0004071
1522	0.0002691
1534	0.0003082
1546	0.0001978
1558	0.0001058
1570	0.0001725
1582	0.0003381
1594	0.0008832
1606	0.0008303
1618	0.0001955
1630	7.13e-05
1642	9.66e-05
1654	0.0001426
1666	0.0002714
1678	0.0001978
1690	3.22e-05
1702	5.98e-05
1714	4.37e-05
1726	9.66e-05
1738	0.0001771
1750	0.0002139
1762	7.82e-05
1774	0.0001357
1786	0.0002461
1798	0.0006509
1810	0.000483
1822	0.0002369
1834	9.43e-05
1846	0.0001311
1858	0.0002921
1870	0.0005359
1882	0.000621
1894	0.0003818
1906	0.0002668
1918	0.0002645
1930	0.0004807
1942	0.0008372
1954	0.0006877
1966	0.0003197
1978	0.0001357
1990	0.0001035
2002	6.21e-05
2014	6.21e-05
2026	5.06e-05
2038	4.6e-05
2050	2.99e-05
2062	4.14e-05
2074	2.76e-05
2086	4.83e-05
2098	5.29e-05
2110	7.82e-05
2122	4.37e-05
2134	7.59e-05
2146	5.75e-05
2158	8.97e-05
2170	8.51e-05
2182	7.13e-05
2194	8.05e-05
2206	8.05e-05
2218	8.28e-05
2230	6.9e-05
2242	8.05e-05
2254	6.21e-05
2266	5.52e-05
2278	6.67e-05
2290	8.74e-05
2302	8.51e-05
2314	0.0001426
2326	0.0001058
2338	8.51e-05
2350	2.76e-05
2362	3.91e-05
2374	2.53e-05
2386	9.66e-05
2398	9.43e-05
2410	9.2e-05
2422	6.9e-05
2434	8.05e-05
2446	6.21e-05
2458	0.0001035
2470	7.13e-05
2482	9.89e-05
2494	0.0001104
2506	9.43e-05
2518	0.0001058
2530	9.2e-05
2542	9.43e-05
2554	0.0001058
2566	0.0001265
2578	0.0001656
2590	0.0001656
2602	0.0001794
2614	0.0002323
2626	0.0002185
2638	0.0001909
2650	0.0001886
2662	0.0002024
2674	0.0001748
2686	0.0001817
2698	0.0001587
2710	0.0002047
2722	0.0002323
2734	0.0002047
2746	0.0001656
2758	0.0001886
2770	0.0002346
2782	0.0002001
2794	0.0003427
2806	0.0004945
2818	0.000621
2830	0.0006394
2842	0.0007981
2854	0.0011638
2866	0.0020769
2878	0.0034385
2890	0.0043861
2902	0.0031349
2914	0.0019573
2926	0.0026335
2938	0.0045563
2950	0.0022057
2962	0.0018676
2974	0.0063526
2986	0.0141703
2998	0.0032522
3010	0.0022655
3022	0.0042527
3034	0.0065274
3046	0.0043654
3058	0.0045563
3070	0.0079994
3082	0.0056557
3094	0.0034109
3106	0.0018262
3118	0.0009499
3130	0.0005244
3142	0.0002944
3154	0.0003013
3166	0.0003565
3178	0.000253
3190	0.0002576
3202	0.0001656
3214	0.000184
3226	0.0001748
3238	5.29e-05
3250	0.0001587
3262	0.0001219
3274	7.82e-05
3286	3.91e-05
3298	8.51e-05
3310	5.75e-05
3322	0.0001265
3334	0.0001219
3346	8.97e-05
3358	0.0001886
3370	0.0001403
3382	7.59e-05
3394	0.0001173
3406	0.0001104
3418	5.75e-05
3430	8.28e-05
3442	8.74e-05
3454	8.28e-05
3466	0.0001311
3478	0.0001242
3490	0.0001334
3502	0.0001058
3514	5.52e-05
3526	9.2e-05
3538	0.0001472
3550	0.0002093
3562	0.0001656
3574	8.51e-05
3586	0.0001219
3598	0.0002369
3610	0.0002024
3622	0.000207
3634	0.0002162
3646	4.37e-05
3658	0.0001955
3670	0.0001403
3682	0.000207
3694	0.0001863
3706	0.0001863
3718	0.0002001
3730	0.0001587
3742	0.0001265
3754	0.0001541
3766	0.0001012
3778	0.0002139
3790	0.00023
3802	0.0001932
3814	0.0001633
3826	0.0002783
3838	0.0001702
