Infrared Spectrum: BENZOIC ANHYDRIDE
Formula: C14 H10 O3
CAS: 93-97-0
State: SOLUTION (10% IN CCl4 FOR 4000-1330 CM^-^1, 10% IN CS2 FOR 1330-600 CM^-^1)
Class: COBLENTZ III
Instrument: BECKMAN IR-7 (GRATING)
Instrument parameters: GRATING CHANGES AT 3000, 2200, 1150 CM^-^1
Sampling: TRANSMISSION
Path length: 0.011 CM, 0.011 CM
Resolution: 4
Origin: WESTERN REGIONAL RES. USDA
1/CM	TRANSMITTANCE
596.136	0.851
605.152	0.72
614.167	0.396
623.183	0.676
632.199	0.716
641.214	0.719
650.23	0.71
659.246	0.5991
668.261	0.681
677.277	0.4431
686.292	0.283
695.308	0.053
704.324	0.037
713.339	0.4469
722.355	0.679
731.371	0.739
740.386	0.737
749.402	0.702
758.418	0.59
767.433	0.44
776.449	0.338
785.465	0.671
794.48	0.636
803.496	0.693
812.511	0.791
821.527	0.797
830.543	0.766
839.558	0.691
848.574	0.628
857.59	0.596
866.605	0.552
875.621	0.633
884.637	0.718
893.652	0.729
902.668	0.7
911.684	0.667
920.699	0.632
929.715	0.414
938.731	0.543
947.746	0.506
956.762	0.363
965.777	0.124
974.793	0.033
983.809	0.022
992.824	0.008
1001.84	0.038
1010.86	0.006
1019.87	0.0759
1028.89	0.02
1037.9	0.025
1046.92	0.076
1055.93	0.26
1064.95	0.2941
1073.97	0.283
1082.98	0.51
1092	0.543
1101.01	0.622
1110.03	0.714
1119.04	0.695
1128.06	0.712
1137.07	0.755
1146.09	0.737
1155.11	0.6201
1164.12	0.278
1173.14	0.1129
1182.15	0.581
1191.17	0.5
1200.18	0.1081
1209.2	0.011
1218.22	0.06
1227.23	0.277
1236.25	0.39
1245.26	0.325
1254.28	0.491
1263.29	0.43
1272.31	0.213
1281.33	0.226
1290.34	0.3989
1299.36	0.572
1308.37	0.4961
1317.39	0.42
1326.4	0.698
1335.42	0.724
1344.43	0.705
1353.45	0.767
1362.47	0.769
1371.48	0.765
1380.5	0.764
1389.51	0.712
1398.53	0.712
1407.54	0.611
1416.56	0.532
1425.58	0.703
1434.59	0.794
1443.61	0.6321
1452.62	0.32
1461.64	0.771
1470.65	0.809
1479.67	0.781
1488.68	0.6361
1497.7	0.71
1506.72	0.68
1515.73	0.641
1524.75	0.601
1533.76	0.532
1542.78	0.455
1551.79	0.448
1560.81	0.509
1569.83	0.555
1578.84	0.5031
1587.86	0.425
1596.87	0.331
1605.89	0.4478
1614.9	0.684
1623.92	0.739
1632.94	0.754
1641.95	0.733
1650.97	0.737
1659.98	0.738
1669	0.706
1678.01	0.621
1687.03	0.3561
1696.04	0.113
1705.06	0.238
1714.08	0.428
1723.09	0.221
1732.11	0.021
1741.12	0.1369
1750.14	0.418
1759.15	0.51
1768.17	0.441
1777.19	0.122
1786.2	0.018
1795.22	0.01
1804.23	0.102
1813.25	0.404
1822.26	0.535
1831.28	0.688
1840.29	0.748
1849.31	0.769
1858.33	0.78
1867.34	0.784
1876.36	0.799
1885.37	0.81
1894.39	0.815
1903.4	0.781
1912.42	0.741
1921.44	0.789
1930.45	0.789
1939.47	0.828
1948.48	0.829
1957.5	0.813
1966.51	0.751
1975.53	0.81
1984.55	0.804
1993.56	0.829
2002.58	0.836
2011.59	0.838
2020.61	0.838
2029.62	0.839
2038.64	0.84
2047.65	0.841
2056.67	0.842
2065.69	0.843
2074.7	0.843
2083.72	0.843
2092.73	0.844
2101.75	0.845
2110.76	0.845
2119.78	0.8452
2128.8	0.847
2137.81	0.847
2146.83	0.848
2155.84	0.849
2164.86	0.85
2173.87	0.8516
2182.89	0.8531
2191.91	0.8547
2200.92	0.856
2209.94	0.8578
2218.95	0.8583
2227.97	0.8599
2236.98	0.8605
2246	0.859
2255.01	0.8564
2264.03	0.8509
2273.05	0.8457
2282.06	0.8418
2291.08	0.84
2300.09	0.8393
2309.11	0.84
2318.12	0.838
2327.14	0.829
2336.16	0.828
2345.17	0.8311
2354.19	0.8364
2363.2	0.843
2372.22	0.8468
2381.23	0.8477
2390.25	0.8461
2399.26	0.845
2408.28	0.844
2417.3	0.842
2426.31	0.84
2435.33	0.838
2444.34	0.8345
2453.36	0.8282
2462.37	0.826
2471.39	0.8231
2480.41	0.8106
2489.42	0.804
2498.44	0.8034
2507.45	0.8019
2516.47	0.7822
2525.48	0.7621
2534.5	0.747
2543.52	0.7347
2552.53	0.7349
2561.55	0.7702
2570.56	0.792
2579.58	0.7875
2588.59	0.7616
2597.61	0.7603
2606.62	0.7762
2615.64	0.7722
2624.66	0.7657
2633.67	0.7631
2642.69	0.7526
2651.7	0.741
2660.72	0.7324
2669.73	0.7314
2678.75	0.746
2687.77	0.7592
2696.78	0.776
2705.8	0.787
2714.81	0.7939
2723.83	0.793
2732.84	0.787
2741.86	0.7769
2750.88	0.7739
2759.89	0.7643
2768.91	0.753
2777.92	0.751
2786.94	0.7473
2795.95	0.7421
2804.97	0.7297
2813.98	0.718
2823	0.7149
2832.02	0.7109
2841.03	0.7056
2850.05	0.6983
2859.06	0.6887
2868.08	0.6756
2877.09	0.663
2886.11	0.6654
2895.13	0.674
2904.14	0.6817
2913.16	0.6914
2922.17	0.7054
2931.19	0.7128
2940.2	0.7058
2949.22	0.6957
2958.23	0.6883
2967.25	0.684
2976.27	0.682
2985.28	0.6739
2994.3	0.6634
3003.31	0.648
3012.33	0.6365
3021.34	0.6211
3030.36	0.5782
3039.38	0.592
3048.39	0.5977
3057.41	0.5299
3066.42	0.4944
3075.44	0.5528
3084.45	0.5963
3093.47	0.5822
3102.49	0.6426
3111.5	0.675
3120.52	0.7063
3129.53	0.7264
3138.55	0.733
3147.56	0.7416
3156.58	0.744
3165.59	0.7467
3174.61	0.7557
3183.63	0.7678
3192.64	0.7703
3201.66	0.7816
3210.67	0.7924
3219.69	0.797
3228.7	0.8026
3237.72	0.8105
3246.74	0.8187
3255.75	0.8222
3264.77	0.8276
3273.78	0.8323
3282.8	0.836
3291.81	0.8395
3300.83	0.843
3309.85	0.8446
3318.86	0.845
3327.88	0.842
3336.89	0.8457
3345.91	0.8518
3354.92	0.8543
3363.94	0.8569
3372.95	0.858
3381.97	0.858
3390.99	0.8586
3400	0.8612
3409.02	0.8667
3418.03	0.8692
3427.05	0.871
3436.06	0.8703
3445.08	0.8652
3454.1	0.8591
3463.11	0.859
3472.13	0.8687
3481.14	0.8771
3490.16	0.879
3499.17	0.8765
3508.19	0.8689
3517.2	0.8673
3526.22	0.8739
3535.24	0.8755
3544.25	0.877
3553.27	0.876
3562.28	0.8771
3571.3	0.879
3580.31	0.879
3589.33	0.879
3598.35	0.882
3607.36	0.8919
3616.38	0.894
3625.39	0.897
3634.41	0.898
3643.42	0.897
3652.44	0.8923
3661.46	0.89
3670.47	0.8908
3679.49	0.893
3688.5	0.895
3697.52	0.895
3706.53	0.89
3715.55	0.8869
3724.56	0.8861
3733.58	0.8894
3742.6	0.8942
3751.61	0.8952
3760.63	0.8947
3769.64	0.8911
3778.66	0.893
3787.67	0.895
3796.69	0.893
3805.71	0.8931
3814.72	0.8963
3823.74	0.897
3832.75	0.8962
3841.77	0.8957
3850.78	0.895
3859.8	0.894
3868.82	0.893
3877.83	0.893
3886.85	0.8941
3895.86	0.895
3904.88	0.8952
3913.89	0.896
3922.91	0.897
3931.92	0.897
3940.94	0.898
3949.96	0.898
3958.97	0.898
3967.99	0.898
3977	0.898
3986.02	0.897
3995.03	0.897
