Infrared Spectrum: cis-1,2-dimethylcyclopropane
Formula: C 5 H 10
CAS: 930-18-7
State: gas
Instrument: HP-GC/MS/IRD
Origin: NIST Mass Spectrometry Data Center
1/CM	ABSORBANCE
550	0.0002296
562	5.33e-05
574	0.0002091
586	0.0001476
598	0.0003362
610	6.15e-05
622	0.0001271
634	0.0004387
646	0.000287
658	0.0003157
670	0.000287
682	0.0001189
694	0.0002911
706	0.0007257
718	0.0018737
730	0.0035465
742	0.0044075
754	0.0047355
766	0.004182
778	0.0025215
790	0.0016728
802	0.0007093
814	0.0009389
826	0.001599
838	0.0026568
850	0.002829
862	0.0027757
874	0.0017958
886	0.0012382
898	0.0012054
910	0.0011644
922	0.0010865
934	0.0007585
946	0.0005248
958	0.0004346
970	0.0006806
982	0.0007626
994	0.0012997
1006	0.0024149
1018	0.003813
1030	0.0041287
1042	0.003526
1054	0.0031406
1066	0.0022509
1078	0.0022099
1090	0.0023083
1102	0.0015252
1114	0.0011234
1126	0.000574
1138	0.0005863
1150	0.0007667
1162	0.00123
1174	0.0014268
1186	0.0009594
1198	0.000451
1210	0.0001599
1222	7.79e-05
1234	2.05e-05
1246	0.0001025
1258	0.0001763
1270	0.0002583
1282	0.0003239
1294	0.000492
1306	0.0006519
1318	0.0008815
1330	0.0014883
1342	0.0017589
1354	0.0019393
1366	0.0024969
1378	0.0028331
1390	0.0037351
1402	0.003772
1414	0.0034481
1426	0.0038663
1438	0.0056785
1450	0.0077449
1462	0.0069905
1474	0.0068962
1486	0.0040713
1498	0.0026158
1510	0.0014965
1522	0.0009471
1534	0.0006273
1546	0.0005289
1558	0.0005986
1570	0.0005617
1582	0.0006519
1594	0.0007995
1606	0.0008897
1618	0.0008159
1630	0.0007585
1642	0.0005904
1654	0.000451
1666	0.0003526
1678	0.0002214
1690	0.0001435
1702	0.0001763
1714	0.0001517
1726	6.56e-05
1738	0.0001271
1750	0.0002296
1762	0.0003239
1774	0.0003895
1786	0.0003854
1798	0.000287
1810	0.0001886
1822	0.0002255
1834	0.0002419
1846	0.0002624
1858	0.0002296
1870	0.0002624
1882	0.0002378
1894	0.0002542
1906	0.0002419
1918	0.0002542
1930	0.0002624
1942	0.0003608
1954	0.0003731
1966	0.0003034
1978	0.0002993
1990	0.0002788
2002	0.0003649
2014	0.0004469
2026	0.0004797
2038	0.0005002
2050	0.0003977
2062	0.0002542
2074	0.000164
2086	0.0001271
2098	0.0001804
2110	0.0002091
2122	0.0001927
2134	0.0003116
2146	0.0002993
2158	0.0003075
2170	0.0003034
2182	0.0002296
2194	0.0001804
2206	0.0001845
2218	0.0001845
2230	0.0001681
2242	0.0002132
2254	0.000205
2266	0.0001927
2278	0.0002091
2290	0.0001353
2302	7.38e-05
2314	8.61e-05
2326	7.79e-05
2338	0.0001599
2350	0.0001025
2362	0.0001189
2374	0.000123
2386	8.2e-05
2398	8.2e-05
2410	0.0001025
2422	0.0001025
2434	0.0001148
2446	0.0001722
2458	0.0002132
2470	0.0002337
2482	0.0001845
2494	0.0001517
2506	0.0001107
2518	0.0001148
2530	0.0001722
2542	0.0001845
2554	0.0001968
2566	0.0002173
2578	0.0001148
2590	0.0001558
2602	0.000123
2614	0.0001968
2626	0.0001558
2638	0.0002091
2650	0.0002009
2662	0.0002419
2674	0.0002542
2686	0.000328
2698	0.0004182
2710	0.000615
2722	0.0008241
2734	0.0010783
2746	0.0012669
2758	0.0015252
2770	0.0017056
2782	0.0017425
2794	0.0018122
2806	0.002173
2818	0.0028536
2830	0.0034686
2842	0.0044239
2854	0.0067281
2866	0.0120458
2878	0.0167116
2890	0.0198727
2902	0.0227263
2914	0.0241244
2926	0.0279169
2938	0.0335749
2950	0.0381095
2962	0.0388434
2974	0.0348008
2986	0.0295569
2998	0.0307746
3010	0.0305901
3022	0.0306844
3034	0.0197825
3046	0.0159449
3058	0.0148174
3070	0.0155472
3082	0.0117137
3094	0.007585
3106	0.0041328
3118	0.0027552
3130	0.0019352
3142	0.0013653
3154	0.0008241
3166	0.000533
3178	0.0004182
3190	0.0003977
3202	0.0004223
3214	0.0003362
3226	0.0003567
3238	0.0003895
3250	0.0002747
3262	0.0003198
3274	0.0003239
3286	0.0002624
3298	0.0002952
3310	0.0002747
3322	0.0002091
3334	0.0002747
3346	0.0001968
3358	0.0002255
3370	0.0002542
3382	0.000205
3394	0.0002788
3406	0.0001763
3418	0.0002173
3430	0.0002501
3442	0.0002747
3454	0.000205
3466	0.0001886
3478	0.0001968
3490	0.000205
3502	0.0002255
3514	0.0001271
3526	0.0002132
3538	0.0001599
3550	0.0002091
3562	0.0001845
3574	0.0002009
3586	8.2e-05
3598	0.0001271
3610	0.0002132
3622	0.0002296
3634	0.0002091
3646	0.0001722
3658	0.0001804
3670	0.0002091
3682	0.0002378
3694	0.0003116
3706	0.0002501
3718	0.0002132
3730	0.0002419
3742	0.0003813
3754	0.0004469
3766	0.0002993
3778	0.0004059
3790	0.0003198
3802	0.0004879
3814	0.0005289
3826	0.000451
3838	0.0004797
