Infrared Spectrum: cis-1-Ethyl-2-methylcyclopentane
Formula: C 8 H 16
CAS: 930-89-2
State: gas
Instrument: HP-GC/MS/IRD
Origin: NIST Mass Spectrometry Data Center
1/CM	ABSORBANCE
550	2.4e-05
562	0.000106
574	4.2e-05
586	0.000101
598	0.0001
610	6.3e-05
622	0.0001
634	7.2e-05
646	7.4e-05
658	3.8e-05
670	9.3e-05
682	9.9e-05
694	0.000108
706	0.000145
718	8.9e-05
730	0.000122
742	0.000129
754	0.00013
766	0.000156
778	0.000164
790	0.00013
802	0.000138
814	0.000139
826	0.000123
838	0.000105
850	0.000152
862	9.9e-05
874	0.000158
886	0.00019
898	0.000168
910	0.000202
922	0.000172
934	0.000199
946	0.000211
958	0.000189
970	0.000202
982	0.000211
994	0.000247
1006	0.000218
1018	0.00018
1030	0.000149
1042	0.000201
1054	0.000148
1066	0.00017
1078	0.000182
1090	0.000157
1102	0.00015
1114	0.000173
1126	0.000127
1138	0.000124
1150	0.000105
1162	9.8e-05
1174	7.1e-05
1186	7.8e-05
1198	7.8e-05
1210	4.3e-05
1222	6.8e-05
1234	6.9e-05
1246	7.9e-05
1258	8.8e-05
1270	0.000107
1282	0.000129
1294	0.000133
1306	0.000138
1318	0.000141
1330	0.000166
1342	0.000193
1354	0.000218
1366	0.00034
1378	0.000535
1390	0.000514
1402	0.000277
1414	0.000185
1426	0.000204
1438	0.000378
1450	0.000713
1462	0.000898
1474	0.000739
1486	0.00044
1498	0.000229
1510	0.000117
1522	7.8e-05
1534	8.4e-05
1546	7.9e-05
1558	6.5e-05
1570	7.2e-05
1582	7.9e-05
1594	9.8e-05
1606	8.2e-05
1618	6.9e-05
1630	6.1e-05
1642	6.2e-05
1654	3.2e-05
1666	5.5e-05
1678	5.9e-05
1690	3.5e-05
1702	2.5e-05
1714	2.7e-05
1726	4.1e-05
1738	8e-06
1750	1.7e-05
1762	1.9e-05
1774	3.1e-05
1786	5e-05
1798	2.5e-05
1810	2.8e-05
1822	2.3e-05
1834	4.7e-05
1846	2.6e-05
1858	3.8e-05
1870	3e-05
1882	3.1e-05
1894	4.1e-05
1906	2.8e-05
1918	4e-05
1930	4.4e-05
1942	2.9e-05
1954	3.9e-05
1966	2.1e-05
1978	3e-05
1990	3.7e-05
2002	3.9e-05
2014	5.1e-05
2026	4.6e-05
2038	5.5e-05
2050	4.1e-05
2062	5.5e-05
2074	5e-05
2086	2.3e-05
2098	2.9e-05
2110	1.6e-05
2122	4.5e-05
2134	4.9e-05
2146	5.6e-05
2158	4e-05
2170	4.7e-05
2182	3.9e-05
2194	4.1e-05
2206	4e-05
2218	4.1e-05
2230	4.1e-05
2242	6.4e-05
2254	7.4e-05
2266	6.3e-05
2278	6.6e-05
2290	5.4e-05
2302	5.3e-05
2314	4.3e-05
2326	5e-05
2338	5e-05
2350	4.4e-05
2362	5.1e-05
2374	4e-05
2386	9.8e-05
2398	8.3e-05
2410	8.3e-05
2422	6.9e-05
2434	7.8e-05
2446	5.5e-05
2458	6.4e-05
2470	4.8e-05
2482	6.1e-05
2494	7.3e-05
2506	7.4e-05
2518	0.000105
2530	0.000101
2542	9.9e-05
2554	0.000111
2566	0.000109
2578	0.00013
2590	0.000104
2602	0.000127
2614	0.000152
2626	0.000147
2638	0.000131
2650	0.00013
2662	0.000158
2674	0.000142
2686	0.000159
2698	0.000161
2710	0.000175
2722	0.00017
2734	0.000207
2746	0.00021
2758	0.000224
2770	0.000259
2782	0.000243
2794	0.000289
2806	0.000325
2818	0.00039
2830	0.000529
2842	0.000796
2854	0.001491
2866	0.002913
2878	0.004211
2890	0.004119
2902	0.003784
2914	0.004398
2926	0.005381
2938	0.006641
2950	0.008598
2962	0.009981
2974	0.00708
2986	0.002914
2998	0.001165
3010	0.000668
3022	0.000482
3034	0.000385
3046	0.000339
3058	0.000311
3070	0.000285
3082	0.00025
3094	0.000225
3106	0.000241
3118	0.000222
3130	0.000204
3142	0.000218
3154	0.000157
3166	0.000141
3178	0.000159
3190	0.000132
3202	0.000131
3214	0.000122
3226	9.9e-05
3238	0.000115
3250	0.000102
3262	0.000125
3274	8.7e-05
3286	9.1e-05
3298	9.1e-05
3310	0.0001
3322	8e-05
3334	0.000102
3346	7.2e-05
3358	9.2e-05
3370	0.000118
3382	6.8e-05
3394	0.0001
3406	8.9e-05
3418	7.7e-05
3430	6.5e-05
3442	7.7e-05
3454	5.4e-05
3466	5.3e-05
3478	8.8e-05
3490	8.4e-05
3502	9.2e-05
3514	7.1e-05
3526	9.7e-05
3538	7.9e-05
3550	8.8e-05
3562	8.2e-05
3574	6.2e-05
3586	5e-05
3598	4.8e-05
3610	7.9e-05
3622	9.5e-05
3634	6.2e-05
3646	0.000107
3658	5.2e-05
3670	3.6e-05
3682	9.1e-05
3694	9.3e-05
3706	7.8e-05
3718	7.2e-05
3730	8.3e-05
3742	8.8e-05
3754	0.000107
3766	0.00012
3778	0.000113
3790	8.1e-05
3802	9.1e-05
3814	0.000121
3826	9.6e-05
3838	9.8e-05
