Infrared Spectrum: cis-Bicyclo[3.3.0]-2-octene
Formula: C 8 H 12
CAS: 930-99-4
State: gas
Instrument: HP-GC/MS/IRD
Origin: NIST Mass Spectrometry Data Center
1/CM	ABSORBANCE
550	0.0002106
562	0.0002418
574	0.0001937
586	0.0001248
598	2.21e-05
610	0.0001677
622	0.0001937
634	0.0001859
646	0.000156
658	0.0003848
670	0.0005876
682	0.001027
694	0.0016536
706	0.0019227
718	0.0014157
730	0.0006643
742	0.0003991
754	0.0003354
766	0.0003055
778	0.0003328
790	0.0002561
802	0.0003783
814	0.0002912
826	0.0002548
838	0.0002236
850	0.0002249
862	0.0002132
874	0.0002184
886	0.0001807
898	0.0002769
910	0.0003757
922	0.0004238
934	0.0004394
946	0.0003367
958	0.0002717
970	0.0003406
982	0.0003042
994	0.0002561
1006	0.0002171
1018	0.0002015
1030	0.0001781
1042	0.0002028
1054	0.0001573
1066	8.45e-05
1078	0.0001261
1090	0.0001664
1102	0.0001547
1114	0.0002093
1126	0.0002431
1138	0.0001846
1150	0.0001157
1162	0.0001378
1174	0.0001742
1186	0.000117
1198	0.0001079
1210	7.02e-05
1222	8.45e-05
1234	0.0001235
1246	0.0001703
1258	0.0001898
1270	0.0002145
1282	0.0001976
1294	0.0001716
1306	0.0001898
1318	0.0001794
1330	0.000156
1342	0.0001976
1354	0.0002249
1366	0.0001586
1378	8.32e-05
1390	9.36e-05
1402	0.0001157
1414	0.0001235
1426	0.0002093
1438	0.0004758
1450	0.0007527
1462	0.0007007
1474	0.000481
1486	0.0002561
1498	0.0001183
1510	8.71e-05
1522	7.41e-05
1534	8.19e-05
1546	4.55e-05
1558	0.0001014
1570	5.72e-05
1582	5.85e-05
1594	0.0001209
1606	0.000247
1618	0.0002847
1630	0.0002392
1642	0.0001924
1654	0.0001625
1666	8.32e-05
1678	7.28e-05
1690	5.98e-05
1702	3.51e-05
1714	3.38e-05
1726	1.43e-05
1738	5.59e-05
1750	4.03e-05
1762	6.63e-05
1774	3.51e-05
1786	2.73e-05
1798	3.51e-05
1810	3.77e-05
1822	2.73e-05
1834	0
1846	3.25e-05
1858	4.94e-05
1870	4.42e-05
1882	3.77e-05
1894	4.29e-05
1906	4.29e-05
1918	4.16e-05
1930	3.77e-05
1942	3.77e-05
1954	3.9e-05
1966	2.21e-05
1978	4.81e-05
1990	2.34e-05
2002	4.94e-05
2014	2.86e-05
2026	3.12e-05
2038	2.47e-05
2050	4.94e-05
2062	8.06e-05
2074	4.03e-05
2086	3.12e-05
2098	4.16e-05
2110	3.25e-05
2122	5.59e-05
2134	2.73e-05
2146	6.11e-05
2158	3.9e-05
2170	6.5e-05
2182	4.68e-05
2194	6.63e-05
2206	6.63e-05
2218	9.23e-05
2230	6.89e-05
2242	6.11e-05
2254	5.33e-05
2266	6.89e-05
2278	4.29e-05
2290	7.67e-05
2302	4.42e-05
2314	7.67e-05
2326	8.45e-05
2338	0.0001079
2350	7.15e-05
2362	8.32e-05
2374	7.93e-05
2386	4.81e-05
2398	4.55e-05
2410	5.98e-05
2422	5.59e-05
2434	7.41e-05
2446	6.89e-05
2458	2.47e-05
2470	4.55e-05
2482	4.03e-05
2494	8.19e-05
2506	6.76e-05
2518	7.41e-05
2530	6.11e-05
2542	7.93e-05
2554	8.45e-05
2566	8.45e-05
2578	0.0001001
2590	0.0001053
2602	0.0001196
2614	0.0001053
2626	9.49e-05
2638	7.41e-05
2650	0.0001235
2662	7.93e-05
2674	6.89e-05
2686	0.0001066
2698	7.93e-05
2710	9.75e-05
2722	0.0001469
2734	0.0001391
2746	0.0001456
2758	0.0001937
2770	0.0001911
2782	0.0002119
2794	0.0002717
2806	0.0003393
2818	0.0004173
2830	0.0006825
2842	0.0015067
2854	0.0030498
2866	0.0045058
2878	0.0046423
2890	0.0043134
2902	0.0049127
2914	0.005447
2926	0.0067093
2938	0.0098722
2950	0.0129324
2962	0.0106834
2974	0.0051675
2986	0.0014469
2998	0.0007241
3010	0.0005655
3022	0.0005642
3034	0.0010218
3046	0.002158
3058	0.0026273
3070	0.0016939
3082	0.0005018
3094	0.0002028
3106	0.0001625
3118	0.0001248
3130	0.0001612
3142	0.0001209
3154	0.0001235
3166	0.0001378
3178	0.0001105
3190	0.0001521
3202	0.0001378
3214	0.000156
3226	0.0001365
3238	0.000117
3250	9.75e-05
3262	8.97e-05
3274	0.0001066
3286	0.0001196
3298	8.71e-05
3310	5.85e-05
3322	9.23e-05
3334	7.15e-05
3346	9.23e-05
3358	8.06e-05
3370	0.0001053
3382	6.24e-05
3394	4.68e-05
3406	7.67e-05
3418	8.58e-05
3430	8.71e-05
3442	7.54e-05
3454	6.63e-05
3466	6.5e-05
3478	5.98e-05
3490	8.32e-05
3502	0.0001326
3514	0.0001014
3526	6.5e-05
3538	4.16e-05
3550	3.64e-05
3562	4.03e-05
3574	4.81e-05
3586	5.2e-05
3598	7.67e-05
3610	4.94e-05
3622	0.0001144
3634	4.42e-05
3646	0.0001352
3658	9.36e-05
3670	0.0001131
3682	0.0001014
3694	9.62e-05
3706	0.0001131
3718	0.0001027
3730	9.49e-05
3742	0.0001365
3754	0.0001248
3766	0.0001768
3778	0.0001469
3790	0.00013
3802	0.0001859
3814	0.0001521
3826	0.0001547
3838	0.0002002
