Infrared Spectrum: Cyclopentylethyne
Formula: C 7 H 10
CAS: 930-51-8
State: gas
Instrument: HP-GC/MS/IRD
Origin: NIST Mass Spectrometry Data Center
1/CM	ABSORBANCE
550	0.000246
562	0.000114
574	0.000194
586	0.000316
598	0.000854
610	0.003204
622	0.01142
634	0.018846
646	0.00674
658	0.001806
670	0.00051
682	0.00027
694	0.000158
706	6.6e-05
718	9.2e-05
730	8.6e-05
742	7.8e-05
754	5.2e-05
766	0.000112
778	0.000154
790	0.000174
802	0.000226
814	0.000166
826	0.000134
838	0.000192
850	0.000166
862	0.0002
874	0.000254
886	0.000436
898	0.000476
910	0.000466
922	0.000464
934	0.000456
946	0.000392
958	0.000296
970	0.000242
982	0.000154
994	6e-05
1006	5e-05
1018	3.2e-05
1030	4e-05
1042	8.6e-05
1054	2e-05
1066	0.000102
1078	0.000118
1090	6.2e-05
1102	3.6e-05
1114	3.2e-05
1126	9e-05
1138	2.8e-05
1150	8.4e-05
1162	0.000116
1174	0.000132
1186	0.000118
1198	0.000174
1210	0.000332
1222	0.00091
1234	0.003664
1246	0.004684
1258	0.003404
1270	0.000912
1282	0.000442
1294	0.000466
1306	0.00057
1318	0.000798
1330	0.000962
1342	0.00089
1354	0.000506
1366	0.000196
1378	0.000138
1390	0.000154
1402	0.00023
1414	0.000288
1426	0.000458
1438	0.00078
1450	0.001164
1462	0.001216
1474	0.000946
1486	0.000598
1498	0.00039
1510	0.000214
1522	0.000138
1534	8.8e-05
1546	6e-05
1558	3e-05
1570	2e-05
1582	3.4e-05
1594	3.4e-05
1606	2.4e-05
1618	6e-06
1630	8e-06
1642	2.6e-05
1654	6e-06
1666	1.2e-05
1678	4e-05
1690	3.8e-05
1702	1.6e-05
1714	2.8e-05
1726	3.6e-05
1738	4.6e-05
1750	1.4e-05
1762	1.4e-05
1774	0
1786	2.8e-05
1798	2.4e-05
1810	2.6e-05
1822	3.8e-05
1834	4.4e-05
1846	8e-06
1858	1.8e-05
1870	4.8e-05
1882	3.8e-05
1894	1.6e-05
1906	3.2e-05
1918	3.4e-05
1930	2.6e-05
1942	3.6e-05
1954	1e-05
1966	1.6e-05
1978	4.6e-05
1990	2.8e-05
2002	4.6e-05
2014	4e-05
2026	4.8e-05
2038	3e-05
2050	6.6e-05
2062	0.000106
2074	0.000188
2086	0.000416
2098	0.000828
2110	0.00115
2122	0.001092
2134	0.000588
2146	0.000208
2158	0.000128
2170	9.6e-05
2182	5e-05
2194	8.2e-05
2206	7.6e-05
2218	7.2e-05
2230	0.00011
2242	6.8e-05
2254	6.2e-05
2266	9.8e-05
2278	8e-05
2290	7.6e-05
2302	0.000114
2314	9.8e-05
2326	9.2e-05
2338	0.000102
2350	9.6e-05
2362	9e-05
2374	3.6e-05
2386	3.8e-05
2398	2.2e-05
2410	4e-05
2422	3.4e-05
2434	2.8e-05
2446	2.2e-05
2458	4.6e-05
2470	2.6e-05
2482	6.8e-05
2494	4.8e-05
2506	3.2e-05
2518	6.2e-05
2530	4e-05
2542	2.6e-05
2554	6.6e-05
2566	5.8e-05
2578	0.000106
2590	8.6e-05
2602	0.000118
2614	9.4e-05
2626	9e-05
2638	7.6e-05
2650	4.4e-05
2662	5.6e-05
2674	9.4e-05
2686	0.000106
2698	0.00014
2710	0.00014
2722	0.000174
2734	0.000158
2746	0.00015
2758	0.000186
2770	0.000246
2782	0.000246
2794	0.000284
2806	0.000306
2818	0.000458
2830	0.000718
2842	0.001118
2854	0.001926
2866	0.00392
2878	0.005888
2890	0.006486
2902	0.005722
2914	0.006278
2926	0.00793
2938	0.010352
2950	0.014484
2962	0.01868
2974	0.019026
2986	0.011352
2998	0.005314
3010	0.002424
3022	0.001236
3034	0.000798
3046	0.000578
3058	0.00044
3070	0.000282
3082	0.000268
3094	0.00021
3106	0.000132
3118	0.000184
3130	0.00013
3142	0.00016
3154	0.000126
3166	0.000152
3178	0.000146
3190	9.8e-05
3202	0.000136
3214	9e-05
3226	9.6e-05
3238	0.00013
3250	0.00022
3262	0.00031
3274	0.000626
3286	0.001228
3298	0.00244
3310	0.004312
3322	0.006418
3334	0.00588
3346	0.002458
3358	0.000752
3370	0.00029
3382	0.000142
3394	0.00011
3406	9.6e-05
3418	6.4e-05
3430	2.8e-05
3442	5.2e-05
3454	0.000144
3466	6.4e-05
3478	0.000102
3490	6.8e-05
3502	0.000102
3514	0.000104
3526	5.2e-05
3538	6.8e-05
3550	0
3562	5.8e-05
3574	0.000108
3586	9e-05
3598	7.4e-05
3610	0.0001
3622	5.6e-05
3634	6e-06
3646	9.4e-05
3658	9e-05
3670	9.6e-05
3682	7e-05
3694	0.000124
3706	8.4e-05
3718	5.2e-05
3730	5.4e-05
3742	0.000164
3754	8e-05
3766	0.000118
3778	0.000156
3790	6.4e-05
3802	9.2e-05
3814	0.000122
3826	0.000152
3838	9.2e-05
