Infrared Spectrum: 1,2,5-Trimethylpyrrole
Formula: C 7 H 11 N
CAS: 930-87-0
State: gas
Origin: EPA-IR VAPOR PHASE LIBRARY
1/CM	ABSORBANCE
549.8	0.0001019
559.445	0.0009798
569.09	0.001847
578.734	0.002137
588.379	0.002547
598.024	0.001927
607.669	0.002267
617.313	0.004037
626.958	0.001837
636.603	0.0010783
646.248	0.0001377
655.893	0.0002355
665.537	0.0004287
675.182	0.0006326
684.827	0.0009996
694.472	0.002097
704.116	0.004357
713.761	0.005417
723.406	0.012417
733.051	0.029857
742.695	0.043927
752.34	0.074587
761.985	0.037717
771.63	0.017567
781.275	0.003737
790.919	0.0011598
800.564	0.0008016
810.209	0.0010941
819.854	0.001257
829.498	0.001327
839.143	0.0011085
848.788	0.0008042
858.433	0.0009268
868.078	0.001217
877.722	0.001747
887.367	0.001747
897.012	0.001497
906.657	0.001257
916.301	0.001237
925.946	0.001397
935.591	0.001457
945.236	0.001987
954.88	0.002517
964.525	0.003757
974.17	0.004617
983.815	0.006287
993.46	0.006577
1003.1	0.008017
1012.75	0.012167
1022.39	0.008947
1032.04	0.008697
1041.68	0.002857
1051.33	0.0010915
1060.97	0.0006607
1070.62	0.0009226
1080.26	0.0006579
1089.91	0.0004695
1099.55	0.0009621
1109.2	0.0008998
1118.84	0.001247
1128.49	0.001277
1138.13	0.001417
1147.78	0.001557
1157.42	0.001787
1167.07	0.002277
1176.71	0.002787
1186.36	0.003147
1196	0.003967
1205.64	0.005637
1215.29	0.006317
1224.93	0.006927
1234.58	0.005307
1244.22	0.004447
1253.87	0.004117
1263.51	0.005437
1273.16	0.009767
1282.8	0.017017
1292.45	0.027377
1302.09	0.031707
1311.74	0.027487
1321.38	0.015967
1331.03	0.006917
1340.67	0.005247
1350.32	0.006327
1359.96	0.009237
1369.61	0.014157
1379.25	0.022677
1388.9	0.038717
1398.54	0.056457
1408.18	0.058907
1417.83	0.054897
1427.47	0.038907
1437.12	0.032127
1446.76	0.032517
1456.41	0.026297
1466.05	0.021577
1475.7	0.014707
1485.34	0.010887
1494.99	0.013107
1504.63	0.019487
1514.28	0.022257
1523.92	0.019657
1533.57	0.011997
1543.21	0.005927
1552.86	0.004557
1562.5	0.005877
1572.15	0.007437
1581.79	0.007107
1591.44	0.005507
1601.08	0.004337
1610.73	0.006077
1620.37	0.008667
1630.01	0.008627
1639.66	0.007117
1649.3	0.004317
1658.95	0.002917
1668.59	0.002217
1678.24	0.001547
1687.88	0.001207
1697.53	0.0010654
1707.17	0.0008684
1716.82	0.0008438
1726.46	0.0008113
1736.11	0.0008616
1745.75	0.0007614
1755.4	0.0007362
1765.04	0.0007588
1774.69	0.0008334
1784.33	0.0006886
1793.98	0.0005861
1803.62	0.0004355
1813.27	0.0004221
1822.91	0.0003947
1832.55	0.0005187
1842.2	0.0005509
1851.84	0.0005341
1861.49	0.0004753
1871.13	0.0004092
1880.78	0.0004009
1890.42	0.0004425
1900.07	0.0004287
1909.71	0.0003456
1919.36	0.00019936
1929	0.00022247
1938.65	0.0003042
1948.29	0.0004847
1957.94	0.0005835
1967.58	0.000607
1977.23	0.0004612
1986.87	0.0003611
1996.52	0.0004407
2006.16	0.0005228
2015.81	0.0005125
2025.45	0.0004861
2035.1	0.0006292
2044.74	0.0006915
2054.38	0.0006009
2064.03	0.0004248
2073.67	0.0004429
2083.32	0.0003146
2092.96	0.0004461
2102.61	0.0004043
2112.25	0.0004508
2121.9	0.000472
2131.54	0.000425
2141.19	0.0004977
2150.83	0.000526
2160.48	0.0005476
2170.12	0.000552
2179.77	0.000541
2189.41	0.0005849
2199.06	0.0004999
2208.7	0.0005724
2218.35	0.0006087
2227.99	0.0007921
2237.64	0.0007914
2247.28	0.0006915
2256.92	0.000489
2266.57	0.0003483
2276.21	0.0003967
2285.86	0.0004799
2295.5	0.0006584
2305.15	0.0008076
2314.79	0.0009354
2324.44	0.0008494
2334.08	0.0007943
2343.73	0.0006813
2353.37	0.0008328
2363.02	0.0009903
2372.66	0.0010186
2382.31	0.0011413
2391.95	0.0010939
2401.6	0.0009292
2411.24	0.0009397
2420.89	0.0009994
2430.53	0.0008863
2440.18	0.0009628
2449.82	0.0008232
2459.47	0.0008456
2469.11	0.0008897
2478.75	0.0008804
2488.4	0.0009062
2498.04	0.0007916
2507.69	0.0006641
2517.33	0.0006868
2526.98	0.0007498
2536.62	0.000807
2546.27	0.0009958
2555.91	0.0011371
2565.56	0.001357
2575.2	0.001237
2584.85	0.001207
2594.49	0.0011044
2604.14	0.0011116
2613.78	0.0010809
2623.43	0.0010235
2633.07	0.0011718
2642.72	0.001207
2652.36	0.001237
2662.01	0.001307
2671.65	0.001577
2681.29	0.001647
2690.94	0.001737
2700.58	0.001927
2710.23	0.002477
2719.87	0.003297
2729.52	0.004767
2739.16	0.006967
2748.81	0.007397
2758.45	0.006257
2768.1	0.004497
2777.74	0.004517
2787.39	0.005247
2797.03	0.006927
2806.68	0.009227
2816.32	0.011617
2825.97	0.014147
2835.61	0.016727
2845.26	0.020837
2854.9	0.027527
2864.55	0.036057
2874.19	0.040417
2883.84	0.042387
2893.48	0.047947
2903.12	0.063197
2912.77	0.077667
2922.41	0.088467
2932.06	0.089287
2941.7	0.084987
2951.35	0.064567
2960.99	0.048867
2970.64	0.040187
2980.28	0.037317
2989.93	0.031767
2999.57	0.022927
3009.22	0.014707
3018.86	0.012997
3028.51	0.013377
3038.15	0.013897
3047.8	0.013117
3057.44	0.011597
3067.09	0.010277
3076.73	0.009897
3086.38	0.010897
3096.02	0.015617
3105.67	0.019827
3115.31	0.017577
3124.95	0.010507
3134.6	0.004117
3144.24	0.002587
3153.89	0.002087
3163.53	0.001377
3173.18	0.0011551
3182.82	0.0010753
3192.47	0.0008573
3202.11	0.000894
3211.76	0.0008653
3221.4	0.0007102
3231.05	0.0005365
3240.69	0.0005351
3250.34	0.0005239
3259.98	0.000612
3269.63	0.0005009
3279.27	0.0004916
3288.92	0.0005109
3298.56	0.0004059
3308.21	0.0004298
3317.85	0.0004781
3327.49	0.0004459
3337.14	0.0004276
3346.78	0.0003408
3356.43	0.0003237
3366.07	0.0004524
3375.72	0.0004006
3385.36	0.0003537
3395.01	0.0003341
3404.65	0.0003049
3414.3	0.0004032
3423.94	0.0003722
3433.59	0.0003745
3443.23	0.0003515
3452.88	0.0004191
3462.52	0.0004655
3472.17	0.0004223
3481.81	0.0004867
3491.46	0.00020448
3501.1	0.0002873
3510.75	0.00025651
3520.39	0.0004783
3530.04	0.0003662
3539.68	0.0003103
3549.32	0.00027222
3558.97	0.0003181
3568.61	0.0002914
3578.26	0.000464
3587.9	0.00026716
3597.55	0.00022958
3607.19	0.0002813
3616.84	0.0004707
3626.48	0.0004548
3636.13	0.0004436
3645.77	0.000185291
3655.42	0.0003669
3665.06	0.0004753
3674.71	0.0002848
3684.35	0.00024583
3694	0.0002908
3703.64	0.00026224
3713.29	0.0003013
3722.93	0.00017238
3732.58	0.00021095
3742.22	0.0004
3751.86	0.00019165
3761.51	0.0002856
3771.15	0.0004298
3780.8	0.0001592
3790.44	0.0005119
3800.09	0.0005824
3809.73	0.0007307
3819.38	0.0006647
3829.02	0.0008602
3838.67	0.0006279
3848.31	0.0005145
3857.96	0.0005757
3867.6	0.0006817
3877.25	0.0005655
3886.89	0.0004578
3896.54	0.000466
3906.18	0.0005476
3915.83	0.0006672
3925.47	0.0007664
3935.12	0.0006093
3944.76	0.0006785
3954.41	0.0005933
3964.05	0.0005431
3973.69	0.0005158
3983.34	0.0002893
3992.98	0.0004624
