Infrared Spectrum: N-Methylmaleimide
Formula: C 5 H 5 N O 2
CAS: 930-88-1
State: gas
Origin: EPA-IR VAPOR PHASE LIBRARY
1/CM	ABSORBANCE
549.8	0.002901
559.445	0.004081
569.09	0.008521
578.734	0.018081
588.379	0.020231
598.024	0.016771
607.669	0.013821
617.313	0.011271
626.958	0.009051
636.603	0.007171
646.248	0.005341
655.893	0.004461
665.537	0.003861
675.182	0.003831
684.827	0.005241
694.472	0.007561
704.116	0.006551
713.761	0.004851
723.406	0.004191
733.051	0.003591
742.695	0.003441
752.34	0.003541
761.985	0.004221
771.63	0.003731
781.275	0.002901
790.919	0.002311
800.564	0.002121
810.209	0.002671
819.854	0.002701
829.498	0.002371
839.143	0.002621
848.788	0.002631
858.433	0.002321
868.078	0.002261
877.722	0.002251
887.367	0.002111
897.012	0.002251
906.657	0.002311
916.301	0.002331
925.946	0.002441
935.591	0.002571
945.236	0.002881
954.88	0.002911
964.525	0.002231
974.17	0.002121
983.815	0.001721
993.46	0.001531
1003.1	0.001611
1012.75	0.001651
1022.39	0.001761
1032.04	0.001911
1041.68	0.001941
1051.33	0.003231
1060.97	0.004711
1070.62	0.007511
1080.26	0.012001
1089.91	0.018571
1099.55	0.030581
1109.2	0.046241
1118.84	0.043601
1128.49	0.028161
1138.13	0.020091
1147.78	0.014211
1157.42	0.010871
1167.07	0.008761
1176.71	0.007351
1186.36	0.006811
1196	0.007741
1205.64	0.008981
1215.29	0.009321
1224.93	0.008271
1234.58	0.007021
1244.22	0.006821
1253.87	0.006571
1263.51	0.006781
1273.16	0.006611
1282.8	0.005561
1292.45	0.005491
1302.09	0.005521
1311.74	0.005121
1321.38	0.005321
1331.03	0.006111
1340.67	0.007491
1350.32	0.009141
1359.96	0.009431
1369.61	0.007891
1379.25	0.005701
1388.9	0.003951
1398.54	0.003051
1408.18	0.002901
1417.83	0.003131
1427.47	0.003591
1437.12	0.003841
1446.76	0.003711
1456.41	0.002811
1466.05	0.001871
1475.7	0.001871
1485.34	0.002961
1494.99	0.003141
1504.63	0.001861
1514.28	0.001501
1523.92	0.0012496
1533.57	0.000951
1543.21	0.0009645
1552.86	0.000892
1562.5	0.0010466
1572.15	0.001421
1581.79	0.002041
1591.44	0.002511
1601.08	0.003001
1610.73	0.003851
1620.37	0.001611
1630.01	0.0008516
1639.66	0.0009545
1649.3	0.0011228
1658.95	0.0012485
1668.59	0.001481
1678.24	0.001611
1687.88	0.002021
1697.53	0.003031
1707.17	0.004231
1716.82	0.005621
1726.46	0.008001
1736.11	0.012491
1745.75	0.017431
1755.4	0.025151
1765.04	0.035681
1774.69	0.048511
1784.33	0.049411
1793.98	0.037581
1803.62	0.024461
1813.27	0.012881
1822.91	0.006521
1832.55	0.003731
1842.2	0.002491
1851.84	0.001871
1861.49	0.001591
1871.13	0.001411
1880.78	0.0012809
1890.42	0.0012179
1900.07	0.0011675
1909.71	0.0010147
1919.36	0.0009798
1929	0.0010412
1938.65	0.0011075
1948.29	0.0010029
1957.94	0.0009436
1967.58	0.0009044
1977.23	0.0009505
1986.87	0.000873
1996.52	0.000939
2006.16	0.0008962
2015.81	0.0008247
2025.45	0.0007877
2035.1	0.000747
2044.74	0.0007329
2054.38	0.0007446
2064.03	0.0007108
2073.67	0.0006829
2083.32	0.0006469
2092.96	0.0007071
2102.61	0.0007113
2112.25	0.0008748
2121.9	0.0009561
2131.54	0.0009104
2141.19	0.0007355
2150.83	0.000649
2160.48	0.0006967
2170.12	0.0006607
2179.77	0.0006773
2189.41	0.0007477
2199.06	0.0007802
2208.7	0.0007813
2218.35	0.0008328
2227.99	0.0008439
2237.64	0.0007605
2247.28	0.0007503
2256.92	0.0007243
2266.57	0.0007318
2276.21	0.0006794
2285.86	0.0007581
2295.5	0.0006356
2305.15	0.0006464
2314.79	0.0007215
2324.44	0.0007071
2334.08	0.0007537
2343.73	0.0007323
2353.37	0.0007121
2363.02	0.0007473
2372.66	0.0007411
2382.31	0.0007296
2391.95	0.0006937
2401.6	0.0006662
2411.24	0.0006927
2420.89	0.0006735
2430.53	0.0006726
2440.18	0.0006729
2449.82	0.0006873
2459.47	0.000725
2469.11	0.0007303
2478.75	0.0006517
2488.4	0.0006594
2498.04	0.0007296
2507.69	0.0006131
2517.33	0.000623
2526.98	0.000708
2536.62	0.0005808
2546.27	0.0005768
2555.91	0.0006845
2565.56	0.0007128
2575.2	0.0006513
2584.85	0.0006438
2594.49	0.0006686
2604.14	0.0005966
2613.78	0.0006161
2623.43	0.0005976
2633.07	0.0006457
2642.72	0.0006954
2652.36	0.0005671
2662.01	0.0005576
2671.65	0.0006332
2681.29	0.0005789
2690.94	0.0006414
2700.58	0.0006039
2710.23	0.0006387
2719.87	0.0006021
2729.52	0.0006234
2739.16	0.0005459
2748.81	0.000561
2758.45	0.0005584
2768.1	0.0005459
2777.74	0.0004952
2787.39	0.0006946
2797.03	0.0006303
2806.68	0.0006406
2816.32	0.0007734
2825.97	0.0007466
2835.61	0.0007877
2845.26	0.0008234
2854.9	0.0008013
2864.55	0.0008954
2874.19	0.0008116
2883.84	0.0009426
2893.48	0.0010466
2903.12	0.0011573
2912.77	0.001481
2922.41	0.002091
2932.06	0.002451
2941.7	0.002541
2951.35	0.002401
2960.99	0.002051
2970.64	0.001991
2980.28	0.002031
2989.93	0.001791
2999.57	0.001671
3009.22	0.001651
3018.86	0.001971
3028.51	0.002861
3038.15	0.003471
3047.8	0.002911
3057.44	0.003021
3067.09	0.003221
3076.73	0.002661
3086.38	0.001581
3096.02	0.0012428
3105.67	0.001341
3115.31	0.0011388
3124.95	0.0007853
3134.6	0.0006769
3144.24	0.0006662
3153.89	0.0006455
3163.53	0.0006163
3173.18	0.0006566
3182.82	0.00046
3192.47	0.000555
3202.11	0.0005469
3211.76	0.0004447
3221.4	0.0005322
3231.05	0.0005239
3240.69	0.00037569
3250.34	0.0004752
3259.98	0.000330078
3269.63	0.00044
3279.27	0.0004378
3288.92	0.00042248
3298.56	0.00036955
3308.21	0.00038839
3317.85	0.00033544
3327.49	0.000333374
3337.14	0.00036962
3346.78	0.000211
3356.43	0.000331468
3366.07	0.0002767
3375.72	0.00039513
3385.36	0.000336727
3395.01	0.00040886
3404.65	3.3e-05
3414.3	0.00034757
3423.94	0.00038558
3433.59	0.00016
3443.23	0.00032197
3452.88	0.0003195
3462.52	0.0003164
3472.17	0.00037995
3481.81	0.0005257
3491.46	0.0005019
3501.1	0.0005806
3510.75	0.0007424
3520.39	0.0008564
3530.04	0.0011223
3539.68	0.001661
3549.32	0.003141
3558.97	0.006101
3568.61	0.018651
3578.26	0.022441
3587.9	0.007201
3597.55	0.002781
3607.19	0.001206
3616.84	0.0009419
3626.48	0.0005903
3636.13	0.00034669
3645.77	0.00038614
3655.42	0.00014
3665.06	0.0002866
3674.71	0.000164
3684.35	0.00034416
3694	0.000179
3703.64	0.0002476
3713.29	0.0002981
3722.93	0.000202
3732.58	0.0002462
3742.22	0.000183
3751.86	0.000212
3761.51	8.5e-05
3771.15	0.00017
3780.8	6.5e-05
3790.44	0.000162
3800.09	0.0003049
3809.73	0.00038359
3819.38	0.0002386
3829.02	0.0002847
3838.67	7.8e-05
3848.31	0.000173
3857.96	0.000193
3867.6	0.000307
3877.25	0.000218
3886.89	6.2e-05
3896.54	0.0002699
3906.18	0.000176
3915.83	0.00032671
3925.47	0.0003006
3935.12	0.0002353
3944.76	0.0002373
3954.41	0.0002337
3964.05	0.0003638
3973.69	0.00032145
3983.34	0.00040398
3992.98	0.00041752
