Infrared Spectrum: Ether, octadecyl vinyl
Formula: C20 H40 O
CAS: 930-02-9
State: SOLUTION (10% CCl4 FOR 3800-1330, 10% CS2 FOR 1330-460 CM^-^1)
Class: COBLENTZ III
Instrument: DOW KBr FOREPRISM-GRATING
Instrument parameters: BLAZED AT 3.5, 12.0, 20.0 MICRON AND CHANGED AT 5.0, 7.5, 14.9 MICRON
Sampling: TRANSMISSION
Path length: 0.011 CM, 0.011 CM
Resolution: 2
Origin: DOW CHEMICAL COMPANY
1/CM	TRANSMITTANCE
462	0.805
471	0.811
480	0.8171
489	0.8235
498	0.8306
507	0.8377
516	0.8442
525	0.8507
534	0.8574
543	0.8637
552	0.8691
561	0.8739
570	0.8779
579	0.8788
588	0.8779
597	0.8733
606	0.8696
615	0.8762
624	0.8803
633	0.873
642	0.8576
651	0.8413
660	0.8522
669	0.8643
678	0.8473
687	0.8334
696	0.7975
705	0.7914
714	0.668
723	0.7083
732	0.7749
741	0.8046
750	0.8148
759	0.8196
768	0.8193
777	0.8095
786	0.7815
795	0.7168
804	0.3742
813	0.3622
822	0.5947
831	0.706
840	0.7171
849	0.6772
858	0.6754
867	0.7002
876	0.7278
885	0.7503
894	0.7737
903	0.7801
912	0.7689
921	0.755
930	0.7434
939	0.6179
948	0.6228
957	0.345
966	0.6323
975	0.6163
984	0.6132
993	0.6301
1002	0.6772
1011	0.7063
1020	0.7077
1029	0.7016
1038	0.6907
1047	0.6774
1056	0.6585
1065	0.596
1074	0.5472
1083	0.6364
1092	0.7222
1101	0.7506
1110	0.7788
1119	0.7497
1128	0.6777
1137	0.6897
1146	0.6803
1155	0.6655
1164	0.6257
1173	0.5372
1182	0.4369
1191	0.1333
1200	0.0381
1209	0.356
1218	0.6164
1227	0.7087
1236	0.7446
1245	0.7516
1254	0.7524
1263	0.7508
1272	0.7431
1281	0.7256
1290	0.7008
1299	0.6649
1308	0.5859
1317	0.1918
1326	0.6161
1335	0.7562
1344	0.7584
1353	0.7334
1362	0.6786
1371	0.6264
1380	0.6132
1389	0.7683
1398	0.7777
1407	0.7633
1416	0.7834
1425	0.7486
1434	0.6342
1443	0.55
1452	0.3592
1461	0.2933
1470	0.3663
1479	0.6723
1488	0.7348
1497	0.7171
1506	0.6727
1515	0.6224
1524	0.5845
1533	0.5336
1542	0.4419
1551	0.4307
1560	0.4822
1569	0.5454
1578	0.536
1587	0.5071
1596	0.4525
1605	0.2545
1614	0.2487
1623	0.4939
1632	0.357
1641	0.4903
1650	0.4324
1659	0.6083
1668	0.723
1677	0.7845
1686	0.8236
1695	0.8391
1704	0.8455
1713	0.8485
1722	0.8497
1731	0.8508
1740	0.8517
1749	0.8523
1758	0.8576
1767	0.8566
1776	0.8554
1785	0.8566
1794	0.8568
1803	0.8571
1812	0.8597
1821	0.8606
1830	0.8592
1839	0.8582
1848	0.8579
1857	0.8567
1866	0.8552
1875	0.8546
1884	0.8551
1893	0.855
1902	0.8523
1911	0.8498
1920	0.848
1929	0.8526
1938	0.8579
1947	0.8597
1956	0.8601
1965	0.8604
1974	0.8592
1983	0.8564
1992	0.8546
2001	0.8681
2010	0.8676
2019	0.8669
2028	0.867
2037	0.8672
2046	0.8673
2055	0.8672
2064	0.8682
2073	0.8692
2082	0.8698
2091	0.8701
2100	0.8701
2109	0.8695
2118	0.8667
2127	0.8649
2136	0.8643
2145	0.8643
2154	0.865
2163	0.8657
2172	0.8666
2181	0.8676
2190	0.8687
2199	0.8703
2208	0.871
2217	0.8711
2226	0.8701
2235	0.8686
2244	0.8671
2253	0.8638
2262	0.8604
2271	0.8564
2280	0.8531
2289	0.8501
2298	0.8497
2307	0.8522
2316	0.8544
2325	0.8576
2334	0.8615
2343	0.8651
2352	0.8668
2361	0.8673
2370	0.8672
2379	0.8667
2388	0.8658
2397	0.8646
2406	0.8651
2415	0.8685
2424	0.8704
2433	0.8711
2442	0.8702
2451	0.8695
2460	0.8693
2469	0.869
2478	0.868
2487	0.866
2496	0.864
2505	0.8615
2514	0.859
2523	0.8568
2532	0.8571
2541	0.8583
2550	0.8581
2559	0.8552
2568	0.8514
2577	0.8474
2586	0.8436
2595	0.8398
2604	0.8359
2613	0.8315
2622	0.8272
2631	0.8228
2640	0.8184
2649	0.814
2658	0.8086
2667	0.8026
2676	0.7968
2685	0.7942
2694	0.8001
2703	0.8071
2712	0.8051
2721	0.7989
2730	0.7913
2739	0.7884
2748	0.7873
2757	0.786
2766	0.7832
2775	0.776
2784	0.7625
2793	0.7399
2802	0.7157
2811	0.6827
2820	0.6494
2829	0.6094
2838	0.4913
2847	0.3181
2856	0.0063
2865	0.0511
2874	0.1342
2883	0.2025
2892	0.1557
2901	0.0671
2910	0.0203
2919	0.0039
2928	0
2937	0.0001
2946	0.0163
2955	0.0519
2964	0.0828
2973	0.1468
2982	0.3435
2991	0.5045
3000	0.6046
3009	0.6606
3018	0.7073
3027	0.7323
3036	0.7491
3045	0.7419
3054	0.7391
3063	0.7609
3072	0.7749
3081	0.7639
3090	0.7809
3099	0.8073
3108	0.8068
3117	0.7782
3126	0.7142
3135	0.7754
3144	0.8182
3153	0.8237
3162	0.8267
3171	0.8271
3180	0.8273
3189	0.8273
3198	0.8271
3207	0.8267
3216	0.8264
3225	0.8256
3234	0.8246
3243	0.8234
3252	0.8219
3261	0.8204
3270	0.8206
3279	0.821
3288	0.8196
3297	0.8189
3306	0.8188
3315	0.8187
3324	0.818
3333	0.8162
3342	0.8154
3351	0.8149
3360	0.8149
3369	0.8158
3378	0.8168
3387	0.8184
3396	0.8202
3405	0.8219
3414	0.8237
3423	0.8263
3432	0.8292
3441	0.832
3450	0.8353
3459	0.8389
3468	0.8426
3477	0.8463
3486	0.8498
3495	0.8532
3504	0.8566
3513	0.8599
3522	0.8625
3531	0.8649
3540	0.8673
3549	0.8691
3558	0.8709
3567	0.8725
3576	0.8723
3585	0.872
3594	0.8717
3603	0.8713
3612	0.8707
3621	0.8699
3630	0.8701
3639	0.8705
3648	0.871
3657	0.8712
3666	0.8714
3675	0.8714
3684	0.8707
3693	0.8709
3702	0.8725
3711	0.8755
3720	0.8783
3729	0.8805
3738	0.8809
3747	0.8807
3756	0.8797
3765	0.8785
3774	0.8773
3783	0.8761
3792	0.8749
3801	0.8741
3810	0.8737
