Infrared Spectrum: O-NITRO CARBANILIC ACID, CINNAMYL ESTER
Formula: C16 H14 N2 O4
CAS: 93014-31-4
State: SOLID (1.5 mg / 100 mg KBr)
Class: COBLENTZ
Instrument: Not specified, most likely a grating spectrometer.
Sampling: TRANSMISSION
Resolution: 4
Origin: CITRUS EXPERIMENT STATION, UNIVERSITY OF FLORIDA (G. EDWARDS)
MICROMETERS	TRANSMITTANCE
2.033	0.708
2.06618	0.71
2.09935	0.713
2.13253	0.72
2.1657	0.721
2.19888	0.722
2.23206	0.729
2.26523	0.733
2.29841	0.734
2.33158	0.736
2.36476	0.74
2.39794	0.744
2.43111	0.746
2.46429	0.754
2.49746	0.761
2.53064	0.766
2.56382	0.769
2.59699	0.765
2.63017	0.774
2.66334	0.776
2.69652	0.777
2.7297	0.786
2.76287	0.79
2.79605	0.797
2.82922	0.798
2.8624	0.797
2.89558	0.798
2.92875	0.782
2.96193	0.497
2.9951	0.649
3.02828	0.778
3.06146	0.788
3.09463	0.79
3.12781	0.789
3.16098	0.764
3.19416	0.75
3.22734	0.765
3.26051	0.769
3.29369	0.772
3.32686	0.776
3.36004	0.728
3.39322	0.73
3.42639	0.764
3.45957	0.766
3.49274	0.792
3.52592	0.809
3.5591	0.81
3.59227	0.816
3.62545	0.821
3.65862	0.828
3.6918	0.829
3.72498	0.829
3.75815	0.829
3.79133	0.83
3.82451	0.834
3.85768	0.833
3.89086	0.836
3.92403	0.838
3.95721	0.84
3.99039	0.841
4.02356	0.84
4.05674	0.841
4.08991	0.841
4.12309	0.84
4.15627	0.845
4.18944	0.849
4.22262	0.854
4.25579	0.856
4.28897	0.858
4.32215	0.86
4.35532	0.856
4.3885	0.858
4.42167	0.857
4.45485	0.852
4.48803	0.854
4.5212	0.861
4.55438	0.862
4.58755	0.864
4.62073	0.866
4.65391	0.866
4.68708	0.868
4.72026	0.87
4.75343	0.872
4.78661	0.873
4.81979	0.873
4.85296	0.873
4.88614	0.874
4.91931	0.873
4.95249	0.874
4.98567	0.874
5.01884	0.87
5.05202	0.862
5.08519	0.866
5.11837	0.862
5.15155	0.873
5.18472	0.873
5.2179	0.876
5.25107	0.876
5.28425	0.869
5.31743	0.876
5.3506	0.877
5.38378	0.87
5.41695	0.864
5.45013	0.846
5.48331	0.854
5.51648	0.856
5.54966	0.852
5.58283	0.842
5.61601	0.813
5.64919	0.79
5.68236	0.62
5.71554	0.254
5.74871	0.418
5.78189	0.602
5.81507	0.776
5.84824	0.802
5.88142	0.82
5.91459	0.841
5.94777	0.837
5.98095	0.829
6.01412	0.826
6.0473	0.826
6.08047	0.821
6.11365	0.79
6.14683	0.697
6.18	0.442
6.21318	0.52
6.24635	0.63
6.27953	0.297
6.31271	0.422
6.34588	0.724
6.37906	0.777
6.41223	0.766
6.44541	0.709
6.47859	0.702
6.51176	0.602
6.54494	0.236
6.57811	0.165
6.61129	0.086
6.64447	0.197
6.67764	0.406
6.71082	0.598
6.74399	0.712
6.77717	0.705
6.81035	0.593
6.84352	0.336
6.8767	0.384
6.90987	0.536
6.94305	0.42
6.97623	0.485
7.0094	0.573
7.04258	0.654
7.07576	0.694
7.10893	0.733
7.14211	0.734
7.17528	0.733
7.20846	0.721
7.24164	0.705
7.27481	0.642
7.30799	0.642
7.34116	0.648
7.37434	0.525
7.40752	0.177
7.44069	0.398
7.47387	0.549
7.50704	0.625
7.54022	0.574
7.5734	0.437
7.60657	0.558
7.63975	0.554
7.67292	0.622
7.7061	0.656
7.73928	0.652
7.77245	0.626
7.80563	0.458
7.8388	0.273
7.87198	0.322
7.90516	0.418
7.93833	0.521
7.97151	0.566
8.00468	0.433
8.03786	0.298
8.07104	0.241
8.10421	0.329
8.13739	0.414
8.17056	0.522
8.20374	0.616
8.23692	0.594
8.27009	0.529
8.30327	0.365
8.33644	0.216
8.36962	0.245
8.4028	0.468
8.43597	0.598
8.46915	0.664
8.50232	0.713
8.5355	0.701
8.56868	0.653
8.60185	0.564
8.63503	0.613
8.6682	0.602
8.70138	0.4
8.73456	0.464
8.76773	0.63
8.80091	0.717
8.83408	0.742
8.86726	0.724
8.90044	0.642
8.93361	0.582
8.96679	0.677
8.99996	0.717
9.03314	0.738
9.06632	0.766
9.09949	0.777
9.13267	0.769
9.16584	0.702
9.19902	0.533
9.2322	0.545
9.26537	0.724
9.29855	0.738
9.33172	0.721
9.3649	0.753
9.39808	0.749
9.43125	0.732
9.46443	0.682
9.4976	0.652
9.53078	0.578
9.56396	0.466
9.59713	0.416
9.63031	0.476
9.66348	0.597
9.69666	0.664
9.72984	0.713
9.76301	0.766
9.79619	0.792
9.82936	0.804
9.86254	0.814
9.89572	0.822
9.92889	0.826
9.96207	0.821
9.99524	0.806
10.0284	0.832
10.0616	0.833
10.0948	0.821
10.1279	0.805
10.1611	0.802
10.1943	0.786
10.2275	0.728
10.2607	0.684
10.2938	0.661
10.327	0.422
10.3602	0.452
10.3934	0.448
10.4265	0.541
10.4597	0.644
10.4929	0.725
10.5261	0.761
10.5592	0.786
10.5924	0.796
10.6256	0.808
10.6588	0.814
10.6919	0.826
10.7251	0.832
10.7583	0.838
10.7915	0.842
10.8246	0.846
10.8578	0.848
10.891	0.842
10.9242	0.836
10.9573	0.852
10.9905	0.857
11.0237	0.858
11.0569	0.861
11.0901	0.861
11.1232	0.861
11.1564	0.862
11.1896	0.862
11.2228	0.862
11.2559	0.862
11.2891	0.864
11.3223	0.864
11.3555	0.862
11.3886	0.857
11.4218	0.842
11.455	0.824
11.4882	0.76
11.5213	0.66
11.5545	0.662
11.5877	0.724
11.6209	0.741
11.654	0.745
11.6872	0.762
11.7204	0.782
11.7536	0.784
11.7867	0.788
11.8199	0.797
11.8531	0.814
11.8863	0.83
11.9195	0.833
11.9526	0.838
11.9858	0.838
12.019	0.832
12.0522	0.809
12.0853	0.75
12.1185	0.702
12.1517	0.714
12.1849	0.726
12.218	0.768
12.2512	0.808
12.2844	0.83
12.3176	0.838
12.3507	0.849
12.3839	0.853
12.4171	0.856
12.4503	0.857
12.4834	0.86
12.5166	0.861
12.5498	0.861
12.583	0.86
12.6162	0.854
12.6493	0.845
12.6825	0.816
12.7157	0.722
12.7489	0.662
12.782	0.741
12.8152	0.806
12.8484	0.832
12.8816	0.837
12.9147	0.832
12.9479	0.821
12.9811	0.802
13.0143	0.788
13.0474	0.75
13.0806	0.724
13.1138	0.75
13.147	0.782
13.1801	0.802
13.2133	0.808
13.2465	0.804
13.2797	0.79
13.3128	0.757
13.346	0.704
13.3792	0.648
13.4124	0.568
13.4456	0.53
13.4787	0.488
13.5119	0.389
13.5451	0.361
13.5783	0.478
13.6114	0.626
13.6446	0.722
13.6778	0.758
13.711	0.785
13.7441	0.802
13.7773	0.81
13.8105	0.816
13.8437	0.824
13.8768	0.833
13.91	0.836
13.9432	0.841
13.9764	0.842
14.0095	0.844
14.0427	0.845
14.0759	0.845
14.1091	0.845
14.1422	0.845
14.1754	0.842
14.2086	0.837
14.2418	0.833
14.275	0.829
14.3081	0.821
14.3413	0.812
14.3745	0.793
14.4077	0.754
14.4408	0.718
14.474	0.686
14.5072	0.668
14.5404	0.652
14.5735	0.634
14.6067	0.622
14.6399	0.62
14.6731	0.618
14.7062	0.618
14.7394	0.618
14.7726	0.616
14.8058	0.609
14.8389	0.612
14.8721	0.616
14.9053	0.632
14.9385	0.644
14.9716	0.69
15.0048	0.717
15.038	0.72
