Infrared Spectrum: butyric acid,4-hydroxy-2-(o-hydroxyphenyl)-2-phenyl-,Gamma-lactone
Formula: C16 H14 O3
CAS: 93011-89-3
State: SOLUTION (1.75% CHCl3 FOR 2.5-15 MICRON)
Class: COBLENTZ
Instrument: PERKIN-ELMER 21 (GRATING)
Instrument parameters: FILTER AT ABOUT 10 MICRONS
Path length: 0.03 CM
Resolution: 2
Origin: ABBOTT LABORATORIES
1/CM	TRANSMITTANCE
791	0.8796
800	0.8767
809	0.846
818	0.8318
827	0.8574
836	0.8218
845	0.8626
854	0.8405
863	0.8617
872	0.8595
881	0.8605
890	0.851
899	0.8145
908	0.8226
917	0.8615
926	0.866
935	0.8745
944	0.8408
953	0.6384
962	0.5679
971	0.7793
980	0.8364
989	0.8419
998	0.783
1007	0.7593
1016	0.5453
1025	0.3377
1034	0.6109
1043	0.6035
1052	0.6864
1061	0.7238
1070	0.6663
1079	0.633
1088	0.6982
1097	0.6629
1106	0.6903
1115	0.6564
1124	0.6477
1133	0.6424
1142	0.5295
1151	0.3005
1160	0.2649
1169	0.4011
1178	0.658
1187	0.6881
1196	0.6885
1205	0.6776
1214	0.6584
1223	0.6331
1232	0.6236
1241	0.6749
1250	0.712
1259	0.7606
1268	0.7686
1277	0.7547
1286	0.6193
1295	0.7627
1304	0.8005
1313	0.7496
1322	0.7504
1331	0.7733
1340	0.7758
1349	0.7188
1358	0.6172
1367	0.4383
1376	0.5916
1385	0.7302
1394	0.7659
1403	0.8157
1412	0.8169
1421	0.8021
1430	0.7495
1439	0.6235
1448	0.5445
1457	0.5893
1466	0.6389
1475	0.5053
1484	0.4477
1493	0.6256
1502	0.8468
1511	0.8666
1520	0.8693
1529	0.8632
1538	0.8563
1547	0.8467
1556	0.8273
1565	0.7858
1574	0.6974
1583	0.7157
1592	0.7282
1601	0.6947
1610	0.7618
1619	0.8232
1628	0.831
1637	0.8326
1646	0.8323
1655	0.8303
1664	0.8246
1673	0.814
1682	0.801
1691	0.7785
1700	0.7609
1709	0.7159
1718	0.624
1727	0.3794
1736	0.1225
1745	0.2079
1754	0.4127
1763	0.4365
1772	0.5489
1781	0.6734
1790	0.6848
1799	0.7289
1808	0.813
1817	0.8428
1826	0.8569
1835	0.8621
1844	0.864
1853	0.861
1862	0.8579
1871	0.8577
1880	0.8589
1889	0.8625
1898	0.8676
1907	0.8672
1916	0.8634
1925	0.8582
1934	0.8555
1943	0.8585
1952	0.8638
1961	0.8697
1970	0.8746
1979	0.8777
1988	0.8782
1997	0.8785
2006	0.8786
2015	0.8784
2024	0.8783
2033	0.8788
2042	0.8793
2051	0.8798
2060	0.8802
2069	0.8805
2078	0.8808
2087	0.8812
2096	0.8815
2105	0.8815
2114	0.8815
2123	0.8815
2132	0.8815
2141	0.8811
2150	0.8806
2159	0.8813
2168	0.8804
2177	0.8804
2186	0.8805
2195	0.8814
2204	0.883
2213	0.8848
2222	0.8849
2231	0.8828
2240	0.8809
2249	0.88
2258	0.8798
2267	0.8798
2276	0.8799
2285	0.8774
2294	0.8741
2303	0.8706
2312	0.8685
2321	0.8684
2330	0.8688
2339	0.8693
2348	0.8699
2357	0.8702
2366	0.8699
2375	0.8691
2384	0.8679
2393	0.867
2402	0.8661
2411	0.8653
2420	0.8656
2429	0.8661
2438	0.8673
2447	0.8688
2456	0.8702
2465	0.8714
2474	0.8726
2483	0.8726
2492	0.8725
2501	0.8723
2510	0.8719
2519	0.8714
2528	0.8709
2537	0.8704
2546	0.8699
2555	0.8695
2564	0.8691
2573	0.8695
2582	0.8699
2591	0.8704
2600	0.8706
2609	0.8707
2618	0.8708
2627	0.8704
2636	0.8696
2645	0.8689
2654	0.8681
2663	0.8671
2672	0.866
2681	0.8648
2690	0.8638
2699	0.8632
2708	0.8626
2717	0.862
2726	0.8616
2735	0.8615
2744	0.8614
2753	0.8612
2762	0.8607
2771	0.8601
2780	0.8581
2789	0.8548
2798	0.8497
2807	0.8447
2816	0.8397
2825	0.8343
2834	0.8289
2843	0.8236
2852	0.8182
2861	0.813
2870	0.8078
2879	0.8028
2888	0.7978
2897	0.7929
2906	0.7882
2915	0.7835
2924	0.7788
2933	0.7743
2942	0.7698
2951	0.7654
2960	0.7616
2969	0.7581
2978	0.7566
2987	0.7566
2996	0.7568
3005	0.7573
3014	0.7582
3023	0.7594
3032	0.7617
3041	0.7657
3050	0.7712
3059	0.7764
3068	0.7793
3077	0.7811
3086	0.782
3095	0.782
3104	0.7814
3113	0.7796
3122	0.7752
3131	0.7694
3140	0.7622
3149	0.7546
3158	0.7466
3167	0.7394
3176	0.7324
3185	0.7228
3194	0.713
3203	0.7018
3212	0.6907
3221	0.6802
3230	0.6703
3239	0.6622
3248	0.6551
3257	0.6496
3266	0.6466
3275	0.644
3284	0.6419
3293	0.6402
3302	0.639
3311	0.6384
3320	0.6384
3329	0.6478
3338	0.6604
3347	0.6727
3356	0.6851
3365	0.6974
3374	0.7097
3383	0.7218
3392	0.7339
3401	0.746
3410	0.7579
3419	0.7699
3428	0.7817
3437	0.793
3446	0.8004
3455	0.8041
3464	0.8064
3473	0.8078
3482	0.809
3491	0.8097
3500	0.81
3509	0.8097
3518	0.8083
3527	0.8057
3536	0.8025
3545	0.7995
3554	0.7983
3563	0.8025
3572	0.8221
3581	0.8422
3590	0.8598
3599	0.8695
3608	0.8752
3617	0.8804
3626	0.8836
3635	0.8866
3644	0.8887
3653	0.8894
3662	0.8901
3671	0.8904
3680	0.8903
3689	0.8902
3698	0.8901
3707	0.8898
3716	0.8896
3725	0.8894
3734	0.8891
3743	0.8887
3752	0.8883
3761	0.888
3770	0.8876
3779	0.8872
3788	0.8862
3797	0.8852
3806	0.8842
3815	0.8831
3824	0.8822
3833	0.8813
3842	0.8806
3851	0.8806
3860	0.8807
3869	0.881
3878	0.8817
3887	0.8825
3896	0.8832
3905	0.8839
3914	0.8846
3923	0.8852
3932	0.8858
3941	0.8858
3950	0.8853
3959	0.8849
3968	0.8846
3977	0.8842
3986	0.8838
3995	0.8834
