Infrared Spectrum: o-METHYL-o-(2,4,5-TRICHLOROPHENYL) DIMETHYLAMIDOPHOSPHOROTHIOATE
Formula: C9 H11 Cl3 N O2 P S
CAS: 93048-35-2
State: SOLUTION (10% CCl4 FOR 3800-1333, 10% CS2 FOR 1333-440 CM^-^1)
Class: COBLENTZ
Instrument: Not specified, most likely a prism, grating, or hybrid spectrometer.
Sampling: TRANSMISSION
Path length: 0.0122 CM, 0.0122 CM
Resolution: 4
Origin: DOW CHEMICAL COMPANY
1/CM	TRANSMITTANCE
450.041	0.784
458.571	0.799
467.1	0.803
475.63	0.833
484.16	0.9329
492.689	0.958
501.219	0.958
509.749	0.9381
518.278	0.885
526.808	0.843
535.338	0.866
543.867	0.895
552.397	0.896
560.927	0.973
569.456	0.988
577.986	0.988
586.516	0.977
595.045	0.9461
603.575	0.7551
612.105	0.761
620.634	0.833
629.164	0.616
637.694	0.917
646.223	0.902
654.753	0.908
663.283	0.8791
671.812	0.5051
680.342	0.4689
688.872	0.7794
697.401	0.811
705.931	0.494
714.461	0.4609
722.99	0.835
731.52	0.875
740.05	0.8351
748.579	0.5953
757.109	0.1501
765.638	0.0589
774.168	0.6238
782.698	0.763
791.227	0.713
799.757	0.5302
808.287	0.2991
816.816	0.034
825.346	0.019
833.876	0.017
842.405	0.028
850.935	0.0849
859.465	0.2586
867.994	0.425
876.524	0.072
885.054	0.3174
893.583	0.801
902.113	0.906
910.643	0.912
919.172	0.896
927.702	0.856
936.232	0.7441
944.761	0.3872
953.291	0.011
961.821	0.24
970.35	0.5379
978.88	0.4192
987.41	0.072
995.939	0.013
1004.47	0.2148
1013	0.553
1021.53	0.5301
1030.06	0.2483
1038.59	0.015
1047.12	0.013
1055.65	0.1598
1064.18	0.356
1072.71	0.423
1081.24	0.0191
1089.77	0.3506
1098.3	0.748
1106.82	0.77
1115.35	0.6461
1123.88	0.183
1132.41	0.492
1140.94	0.7319
1149.47	0.738
1158	0.713
1166.53	0.5781
1175.06	0.2901
1183.59	0.274
1192.12	0.4209
1200.65	0.6218
1209.18	0.748
1217.71	0.767
1226.24	0.6501
1234.77	0.543
1243.3	0.23
1251.83	0.1669
1260.36	0.4189
1268.89	0.664
1277.42	0.765
1285.95	0.7111
1294.48	0.526
1303.01	0.402
1311.54	0.6246
1320.07	0.788
1328.6	0.832
1337.13	0.7461
1345.66	0.3742
1354.19	0.284
1362.71	0.799
1371.24	0.86
1379.77	0.877
1388.3	0.914
1396.83	0.91
1405.36	0.896
1413.89	0.816
1422.42	0.847
1430.95	0.803
1439.48	0.604
1448.01	0.3432
1456.54	0.011
1465.07	0.036
1473.6	0.272
1482.13	0.341
1490.66	0.431
1499.19	0.566
1507.72	0.669
1516.25	0.664
1524.78	0.637
1533.31	0.5661
1541.84	0.469
1550.37	0.427
1558.9	0.477
1567.43	0.566
1575.96	0.526
1584.49	0.482
1593.02	0.717
1601.55	0.8219
1610.08	0.895
1618.6	0.933
1627.13	0.954
1635.66	0.975
1644.19	0.982
1652.72	0.969
1661.25	0.952
1669.78	0.956
1678.31	0.961
1686.84	0.965
1695.37	0.971
1703.9	0.969
1712.43	0.963
1720.96	0.954
1729.49	0.948
1738.02	0.942
1746.55	0.958
1755.08	0.963
1763.61	0.971
1772.14	0.979
1780.67	0.975
1789.2	0.973
1797.73	0.969
1806.26	0.969
1814.79	0.973
1823.32	0.979
1831.85	0.975
1840.38	0.971
1848.91	0.969
1857.44	0.961
1865.96	0.961
1874.49	0.967
1883.02	0.975
1891.55	0.98
1900.08	0.982
1908.61	0.984
1917.14	0.984
1925.67	0.984
1934.2	0.984
1942.73	0.984
1951.26	0.982
1959.79	0.982
1968.32	0.982
1976.85	0.984
1985.38	0.984
1993.91	0.98
2002.44	0.965
2010.97	0.968
2019.5	0.9729
2028.03	0.978
2036.56	0.975
2045.09	0.971
2053.62	0.969
2062.15	0.969
2070.68	0.973
2079.21	0.9795
2087.74	0.98
2096.27	0.9809
2104.8	0.98
2113.33	0.98
2121.85	0.98
2130.38	0.98
2138.91	0.98
2147.44	0.9795
2155.97	0.979
2164.5	0.9761
2173.03	0.975
2181.56	0.977
2190.09	0.979
2198.62	0.98
2207.15	0.98
2215.68	0.98
2224.21	0.979
2232.74	0.979
2241.27	0.98
2249.8	0.9742
2258.33	0.9672
2266.86	0.963
2275.39	0.9592
2283.92	0.958
2292.45	0.954
2300.98	0.9492
2309.51	0.9533
2318.04	0.9646
2326.57	0.963
2335.1	0.971
2343.63	0.973
2352.16	0.967
2360.69	0.971
2369.21	0.9673
2377.74	0.9767
2386.27	0.9807
2394.8	0.982
2403.33	0.982
2411.86	0.982
2420.39	0.982
2428.92	0.982
2437.45	0.98
2445.98	0.98
2454.51	0.979
2463.04	0.975
2471.57	0.975
2480.1	0.975
2488.63	0.9757
2497.16	0.979
2505.69	0.98
2514.22	0.98
2522.75	0.98
2531.28	0.98
2539.81	0.982
2548.34	0.982
2556.87	0.982
2565.4	0.982
2573.93	0.9784
2582.46	0.977
2590.99	0.977
2599.52	0.9798
2608.05	0.984
2616.58	0.984
2625.1	0.982
2633.63	0.982
2642.16	0.982
2650.69	0.982
2659.22	0.982
2667.75	0.9805
2676.28	0.98
2684.81	0.98
2693.34	0.98
2701.87	0.982
2710.4	0.982
2718.93	0.982
2727.46	0.98
2735.99	0.979
2744.52	0.9785
2753.05	0.9755
2761.58	0.9705
2770.11	0.9635
2778.64	0.9575
2787.17	0.9436
2795.7	0.9142
2804.23	0.8059
2812.76	0.7923
2821.29	0.8246
2829.82	0.9
2838.35	0.86
2846.88	0.6932
2855.41	0.6654
2863.94	0.8058
2872.47	0.8055
2880.99	0.7381
2889.52	0.6584
2898.05	0.621
2906.58	0.6432
2915.11	0.662
2923.64	0.6126
2932.17	0.5366
2940.7	0.4857
2949.23	0.381
2957.76	0.5327
2966.29	0.7675
2974.82	0.8484
2983.35	0.85
2991.88	0.8294
3000.41	0.8098
3008.94	0.8016
3017.47	0.8175
3026	0.8772
3034.53	0.9265
3043.06	0.9479
3051.59	0.956
3060.12	0.9514
3068.65	0.9437
3077.18	0.944
3085.71	0.9385
3094.24	0.8774
3102.77	0.8998
3111.3	0.9492
3119.83	0.9791
3128.35	0.9872
3136.88	0.9922
3145.41	0.998
3153.94	1
3162.47	1.0006
3171	1.0032
3179.53	1.005
3188.06	1.0072
3196.59	1.011
3205.12	1.011
3213.65	1.011
3222.18	1.013
3230.71	1.013
3239.24	1.013
3247.77	1.015
3256.3	1.015
3264.83	1.017
3273.36	1.017
3281.89	1.019
3290.42	1.02
3298.95	1.019
3307.48	1.0219
3316.01	1.019
3324.54	1.017
3333.07	1.017
3341.6	1.017
3350.13	1.0196
3358.66	1.019
3367.19	1.0195
3375.72	1.022
3384.24	1.019
3392.77	1.02
3401.3	1.019
3409.83	1.022
3418.36	1.018
3426.89	1.015
3435.42	1.015
3443.95	1.013
3452.48	1.013
3461.01	1.011
3469.54	1.011
3478.07	1.009
3486.6	1.009
3495.13	1.007
3503.66	1.003
3512.19	1.003
3520.72	1.003
3529.25	1.003
3537.78	1.003
3546.31	1.003
3554.84	1.003
3563.37	1.003
3571.9	1.003
3580.43	1.003
3588.96	1.003
3597.49	1.003
3606.02	1.003
3614.55	1.003
3623.08	1.001
3631.6	1.0029
3640.13	1.001
3648.66	1.001
3657.19	1.0004
3665.72	1.001
3674.25	1.003
3682.78	1
3691.31	1.0004
3699.84	1
3708.37	1
3716.9	1
3725.43	1.001
3733.96	1
3742.49	1
3751.02	1
3759.55	1.001
3768.08	0.9928
3776.61	0.99
3785.14	0.992
