Infrared Spectrum: 3-(Trifluoromethoxy)benzylamine
Formula: C 8 H 8 F 3 N O
CAS: 93071-75-1
State: gas
Origin: EPA-IR VAPOR PHASE LIBRARY
1/CM	ABSORBANCE
549.8	0.012003
559.445	0.012423
569.09	0.013903
578.734	0.014243
588.379	0.016943
598.024	0.018533
607.669	0.019483
617.313	0.024043
626.958	0.043503
636.603	0.053823
646.248	0.029383
655.893	0.022883
665.537	0.024843
675.182	0.034103
684.827	0.054873
694.472	0.077893
704.116	0.075533
713.761	0.058033
723.406	0.054783
733.051	0.059823
742.695	0.063503
752.34	0.065143
761.985	0.071233
771.63	0.086343
781.275	0.102673
790.919	0.099393
800.564	0.074263
810.209	0.053303
819.854	0.040073
829.498	0.033013
839.143	0.031013
848.788	0.040253
858.433	0.050473
868.078	0.044513
877.722	0.037273
887.367	0.032293
897.012	0.025323
906.657	0.019793
916.301	0.016033
925.946	0.015743
935.591	0.015403
945.236	0.017793
954.88	0.020123
964.525	0.019613
974.17	0.017393
983.815	0.016773
993.46	0.020203
1003.1	0.026133
1012.75	0.019073
1022.39	0.017243
1032.04	0.018993
1041.68	0.021583
1051.33	0.020973
1060.97	0.020963
1070.62	0.022073
1080.26	0.022243
1089.91	0.022293
1099.55	0.021303
1109.2	0.022423
1118.84	0.027463
1128.49	0.042093
1138.13	0.068393
1147.78	0.106903
1157.42	0.162193
1167.07	0.284123
1176.71	0.481383
1186.36	0.607143
1196	0.464673
1205.64	0.469443
1215.29	0.725713
1224.93	0.844893
1234.58	0.631273
1244.22	0.627673
1253.87	0.982713
1263.51	1.32633
1273.16	1.13255
1282.8	0.453523
1292.45	0.202993
1302.09	0.129803
1311.74	0.091483
1321.38	0.064913
1331.03	0.047233
1340.67	0.037093
1350.32	0.031803
1359.96	0.029303
1369.61	0.030583
1379.25	0.031973
1388.9	0.027753
1398.54	0.022183
1408.18	0.020033
1417.83	0.019083
1427.47	0.023733
1437.12	0.046573
1446.76	0.076293
1456.41	0.058993
1466.05	0.042973
1475.7	0.045183
1485.34	0.075603
1494.99	0.073013
1504.63	0.034953
1514.28	0.019333
1523.92	0.015013
1533.57	0.014373
1543.21	0.015483
1552.86	0.019193
1562.5	0.024803
1572.15	0.035293
1581.79	0.061423
1591.44	0.083753
1601.08	0.077293
1610.73	0.081083
1620.37	0.062973
1630.01	0.038223
1639.66	0.024753
1649.3	0.018113
1658.95	0.014343
1668.59	0.011303
1678.24	0.009323
1687.88	0.007813
1697.53	0.006973
1707.17	0.006463
1716.82	0.006043
1726.46	0.006113
1736.11	0.006403
1745.75	0.007113
1755.4	0.007703
1765.04	0.008253
1774.69	0.008223
1784.33	0.007913
1793.98	0.007193
1803.62	0.006603
1813.27	0.006103
1822.91	0.005593
1832.55	0.005733
1842.2	0.005643
1851.84	0.006393
1861.49	0.007183
1871.13	0.006693
1880.78	0.005343
1890.42	0.004693
1900.07	0.005063
1909.71	0.005143
1919.36	0.006123
1929	0.007473
1938.65	0.006493
1948.29	0.004503
1957.94	0.003733
1967.58	0.003673
1977.23	0.003733
1986.87	0.003543
1996.52	0.003603
2006.16	0.003633
2015.81	0.003843
2025.45	0.004143
2035.1	0.004533
2044.74	0.004823
2054.38	0.004753
2064.03	0.005143
2073.67	0.005783
2083.32	0.005813
2092.96	0.005643
2102.61	0.005543
2112.25	0.006053
2121.9	0.006613
2131.54	0.005873
2141.19	0.004473
2150.83	0.003813
2160.48	0.003053
2170.12	0.003013
2179.77	0.002573
2189.41	0.002913
2199.06	0.002783
2208.7	0.003033
2218.35	0.002833
2227.99	0.002683
2237.64	0.002243
2247.28	0.002073
2256.92	0.002053
2266.57	0.002103
2276.21	0.002003
2285.86	0.001963
2295.5	0.002203
2305.15	0.002443
2314.79	0.002423
2324.44	0.002903
2334.08	0.003123
2343.73	0.003333
2353.37	0.003023
2363.02	0.003153
2372.66	0.003253
2382.31	0.003813
2391.95	0.004153
2401.6	0.004243
2411.24	0.004203
2420.89	0.004983
2430.53	0.006013
2440.18	0.007293
2449.82	0.007733
2459.47	0.007453
2469.11	0.008423
2478.75	0.009533
2488.4	0.009243
2498.04	0.007823
2507.69	0.005973
2517.33	0.005083
2526.98	0.004333
2536.62	0.003843
2546.27	0.003443
2555.91	0.002583
2565.56	0.002513
2575.2	0.002113
2584.85	0.001993
2594.49	0.002263
2604.14	0.002203
2613.78	0.002113
2623.43	0.002263
2633.07	0.002233
2642.72	0.002243
2652.36	0.002243
2662.01	0.002163
2671.65	0.002103
2681.29	0.002713
2690.94	0.002673
2700.58	0.002693
2710.23	0.002753
2719.87	0.003383
2729.52	0.003613
2739.16	0.003643
2748.81	0.004033
2758.45	0.004203
2768.1	0.003973
2777.74	0.004233
2787.39	0.004663
2797.03	0.005873
2806.68	0.006863
2816.32	0.008943
2825.97	0.012383
2835.61	0.015233
2845.26	0.019533
2854.9	0.025373
2864.55	0.030733
2874.19	0.030643
2883.84	0.027813
2893.48	0.027783
2903.12	0.029773
2912.77	0.028303
2922.41	0.026053
2932.06	0.025173
2941.7	0.025793
2951.35	0.022283
2960.99	0.016673
2970.64	0.011263
2980.28	0.008043
2989.93	0.005543
2999.57	0.004123
3009.22	0.004613
3018.86	0.006923
3028.51	0.011743
3038.15	0.016823
3047.8	0.019693
3057.44	0.019723
3067.09	0.020093
3076.73	0.020233
3086.38	0.016023
3096.02	0.010553
3105.67	0.006843
3115.31	0.004593
3124.95	0.003193
3134.6	0.002143
3144.24	0.0014775
3153.89	0.001823
3163.53	0.0012423
3173.18	0.002073
3182.82	0.0012925
3192.47	0.0013636
3202.11	0.001953
3211.76	0.001763
3221.4	0.001674
3231.05	0.0016205
3240.69	0.0013015
3250.34	0.0012915
3259.98	0.0015387
3269.63	0.0006784
3279.27	0.00122
3288.92	0.0013854
3298.56	0.0013229
3308.21	0.0015416
3317.85	0.0011924
3327.49	0.0016408
3337.14	0.001943
3346.78	0.002603
3356.43	0.003153
3366.07	0.002913
3375.72	0.0016714
3385.36	0.001963
3395.01	0.002323
3404.65	0.002243
3414.3	0.002583
3423.94	0.002293
3433.59	0.002713
3443.23	0.0017222
3452.88	0.0015046
3462.52	0.001702
3472.17	0.00082733
3481.81	0.001299
3491.46	0.000977
3501.1	0.0007355
3510.75	0.0015104
3520.39	0.0009564
3530.04	0.0006967
3539.68	0.00075664
3549.32	0.0013017
3558.97	0.0011242
3568.61	0.00051
3578.26	0.0010445
3587.9	0.0015836
3597.55	0.0013599
3607.19	0.00077866
3616.84	0.0015001
3626.48	0.0010172
3636.13	0.0008868
3645.77	0.0013751
3655.42	0.0010902
3665.06	0.0013843
3674.71	0.0013682
3684.35	0.001943
3694	0.0013387
3703.64	0.0013869
3713.29	0.0015661
3722.93	0.0012205
3732.58	0.000693
3742.22	0.0014646
3751.86	0.0010709
3761.51	0.001763
3771.15	0.0010136
3780.8	0.000533
3790.44	0.00080352
3800.09	0.0012029
3809.73	0.0009836
3819.38	0.000378
3829.02	0.001077
3838.67	0.0011849
3848.31	0.0013031
3857.96	0.0009972
3867.6	0.0008306
3877.25	0.0007107
3886.89	0.0012606
3896.54	0.0011407
3906.18	0.000621
3915.83	0.0009981
3925.47	0.0013704
3935.12	0.001783
3944.76	0.00081651
3954.41	0.0011108
3964.05	0.0013988
3973.69	0.000644
3983.34	0.0010959
3992.98	0.0007089
