Infrared Spectrum: IMIDAZOLE, 2-ETHYL-4-METHYL-,
Formula: C6 H10 N2
CAS: 931-36-2
State: SOLUTION (10% CCl4 FOR 3800-1330, 10% CS2 FOR 1330-460 CM^-^1)
Class: COBLENTZ III
Instrument: DOW KBr FOREPRISM-GRATING
Instrument parameters: BLAZED AT 3.5, 12.0, 20.0 MICRON AND CHANGED AT 5.0, 7.5, 14.9 MICRON
Sampling: TRANSMISSION
Path length: 0.011 CM, 0.011 CM
Resolution: 2
Origin: DOW CHEMICAL COMPANY
1/CM	TRANSMITTANCE
455	0.788
464	0.8001
473	0.8106
482	0.8188
491	0.826
500	0.8327
509	0.836
518	0.8383
527	0.8396
536	0.8389
545	0.8388
554	0.8471
563	0.8548
572	0.852
581	0.8475
590	0.8394
599	0.8235
608	0.8375
617	0.8277
626	0.7946
635	0.5798
644	0.7769
653	0.7714
662	0.8064
671	0.8528
680	0.8556
689	0.8318
698	0.8355
707	0.8482
716	0.7882
725	0.7197
734	0.6778
743	0.5
752	0.7571
761	0.8025
770	0.7989
779	0.7548
788	0.6329
797	0.6651
806	0.7161
815	0.7512
824	0.7505
833	0.7106
842	0.6422
851	0.6172
860	0.6258
869	0.6391
878	0.6583
887	0.6751
896	0.6821
905	0.6871
914	0.7008
923	0.7122
932	0.7232
941	0.7155
950	0.6458
959	0.6765
968	0.7361
977	0.7369
986	0.7876
995	0.7445
1004	0.7074
1013	0.6697
1022	0.5069
1031	0.5637
1040	0.7225
1049	0.6934
1058	0.5597
1067	0.521
1076	0.7143
1085	0.7989
1094	0.8114
1103	0.7875
1112	0.6792
1121	0.6138
1130	0.7692
1139	0.7018
1148	0.8232
1157	0.8624
1166	0.8747
1175	0.8657
1184	0.8888
1193	0.8837
1202	0.8745
1211	0.8604
1220	0.8377
1229	0.7925
1238	0.7753
1247	0.8252
1256	0.8121
1265	0.785
1274	0.7284
1283	0.6849
1292	0.778
1301	0.7895
1310	0.5552
1319	0.758
1328	0.6862
1337	0.5872
1346	0.5806
1355	0.5401
1364	0.4865
1373	0.4145
1382	0.3425
1391	0.3412
1400	0.3791
1409	0.3647
1418	0.2794
1427	0.0879
1436	0.075
1445	0.0651
1454	0.1079
1463	0.1569
1472	0.3232
1481	0.393
1490	0.3852
1499	0.3655
1508	0.3239
1517	0.2667
1526	0.3161
1535	0.2488
1544	0.2233
1553	0.2209
1562	0.2305
1571	0.2266
1580	0.1528
1589	0.2045
1598	0.2415
1607	0.2533
1616	0.427
1625	0.4784
1634	0.4796
1643	0.4531
1652	0.4462
1661	0.4741
1670	0.4743
1679	0.4981
1688	0.5193
1697	0.5358
1706	0.5494
1715	0.5588
1724	0.5667
1733	0.5731
1742	0.5752
1751	0.5831
1760	0.5831
1769	0.5847
1778	0.5778
1787	0.5701
1796	0.5631
1805	0.557
1814	0.5518
1823	0.5457
1832	0.5398
1841	0.5345
1850	0.5296
1859	0.5253
1868	0.5212
1877	0.5181
1886	0.5162
1895	0.516
1904	0.5181
1913	0.5203
1922	0.5231
1931	0.5262
1940	0.5298
1949	0.5352
1958	0.5416
1967	0.5471
1976	0.5495
1985	0.551
1994	0.5507
2003	0.5781
2012	0.5852
2021	0.5945
2030	0.602
2039	0.6079
2048	0.6142
2057	0.622
2066	0.6322
2075	0.64
2084	0.6478
2093	0.6544
2102	0.6607
2111	0.6658
2120	0.6708
2129	0.6758
2138	0.6801
2147	0.6812
2156	0.6824
2165	0.6834
2174	0.6858
2183	0.6864
2192	0.6864
2201	0.6841
2210	0.6815
2219	0.6784
2228	0.6736
2237	0.6681
2246	0.6624
2255	0.6558
2264	0.6485
2273	0.641
2282	0.6309
2291	0.6209
2300	0.6103
2309	0.5988
2318	0.5872
2327	0.5754
2336	0.5641
2345	0.5526
2354	0.541
2363	0.5293
2372	0.5174
2381	0.5008
2390	0.4873
2399	0.4754
2408	0.4654
2417	0.4552
2426	0.4387
2435	0.4245
2444	0.4059
2453	0.3838
2462	0.364
2471	0.3441
2480	0.3247
2489	0.3058
2498	0.2863
2507	0.2672
2516	0.2491
2525	0.2375
2534	0.2358
2543	0.2351
2552	0.2239
2561	0.2139
2570	0.2012
2579	0.1873
2588	0.1728
2597	0.1627
2606	0.1505
2615	0.1383
2624	0.1289
2633	0.1257
2642	0.1219
2651	0.1104
2660	0.1013
2669	0.103
2678	0.107
2687	0.1075
2696	0.1017
2705	0.1009
2714	0.1015
2723	0.0955
2732	0.082
2741	0.0736
2750	0.0739
2759	0.0774
2768	0.0786
2777	0.0822
2786	0.0886
2795	0.0857
2804	0.077
2813	0.0737
2822	0.0735
2831	0.0773
2840	0.0811
2849	0.0769
2858	0.0649
2867	0.0538
2876	0.0406
2885	0.0409
2894	0.0495
2903	0.0576
2912	0.0605
2921	0.0494
2930	0.0345
2939	0.0284
2948	0.0296
2957	0.0387
2966	0.037
2975	0.0182
2984	0.013
2993	0.0315
3002	0.0587
3011	0.0723
3020	0.0781
3029	0.0866
3038	0.1085
3047	0.1278
3056	0.1424
3065	0.1444
3074	0.1314
3083	0.1294
3092	0.1388
3101	0.1608
3110	0.1684
3119	0.1748
3128	0.185
3137	0.1953
3146	0.2063
3155	0.2224
3164	0.2439
3173	0.2632
3182	0.2861
3191	0.3057
3200	0.3384
3209	0.342
3218	0.351
3227	0.3859
3236	0.4185
3245	0.4449
3254	0.4767
3263	0.5025
3272	0.5331
3281	0.5591
3290	0.5822
3299	0.606
3308	0.6304
3317	0.6497
3326	0.6662
3335	0.6849
3344	0.6995
3353	0.7125
3362	0.725
3371	0.7381
3380	0.7494
3389	0.7576
3398	0.7665
3407	0.7781
3416	0.7876
3425	0.793
3434	0.7989
3443	0.8025
3452	0.8004
3461	0.7943
3470	0.7919
3479	0.8028
3488	0.8214
3497	0.83
3506	0.835
3515	0.8394
3524	0.8424
3533	0.8452
3542	0.8475
3551	0.8498
3560	0.8521
3569	0.8538
3578	0.8555
3587	0.8571
3596	0.8588
3605	0.8597
3614	0.8605
3623	0.8604
3632	0.8603
3641	0.8628
3650	0.8595
3659	0.8433
3668	0.8318
3677	0.8355
3686	0.8589
3695	0.865
3704	0.8703
3713	0.8746
3722	0.8755
3731	0.8757
3740	0.8751
3749	0.8747
3758	0.8744
3767	0.8748
3776	0.8755
3785	0.8817
3794	0.8839
