Infrared Spectrum: Bicyclo[2.2.2]-2-octene
Formula: C 8 H 12
CAS: 931-64-6
State: gas
Instrument: HP-GC/MS/IRD
Origin: NIST Mass Spectrometry Data Center
1/CM	ABSORBANCE
550	0.0002448
562	0.0002268
574	0.0001548
586	0.0001332
598	0.0001908
610	8.28e-05
622	0.0001332
634	0.0001224
646	0.0001584
658	0.000198
670	0.0009756
682	0.0029412
694	0.0053964
706	0.0042156
718	0.001728
730	0.0004644
742	0.0001692
754	6.84e-05
766	6.84e-05
778	0.0001944
790	0.0004176
802	0.0005976
814	0.0003276
826	0.0001476
838	0.0002088
850	0.0004356
862	0.000864
874	0.0007056
886	0.0002808
898	3.24e-05
910	5.4e-05
922	5.04e-05
934	0.0001368
946	0.000252
958	0.0002052
970	0.0001188
982	7.92e-05
994	7.2e-05
1006	0.000144
1018	0.0001296
1030	0.0002304
1042	0.0002268
1054	0.0001368
1066	3.24e-05
1078	7.2e-05
1090	0.0001332
1102	0.0001224
1114	7.2e-05
1126	2.88e-05
1138	0.0001044
1150	0.0003096
1162	0.0005508
1174	0.000504
1186	0.0003672
1198	0.0002016
1210	0.0001476
1222	0.0001368
1234	6.12e-05
1246	4.32e-05
1258	1.08e-05
1270	6.12e-05
1282	3.24e-05
1294	6.48e-05
1306	7.2e-05
1318	0.0001116
1330	0.0001224
1342	6.48e-05
1354	0.0001908
1366	0.000324
1378	0.0004032
1390	0.0002808
1402	8.28e-05
1414	6.48e-05
1426	0.0001044
1438	0.0004536
1450	0.0008532
1462	0.001134
1474	0.0008136
1486	0.0002952
1498	0.000108
1510	6.12e-05
1522	3.24e-05
1534	4.68e-05
1546	3.6e-05
1558	3.6e-05
1570	6.84e-05
1582	8.28e-05
1594	0.0002268
1606	0.0004752
1618	0.0007416
1630	0.0005868
1642	0.0002736
1654	9.72e-05
1666	2.16e-05
1678	1.8e-05
1690	1.8e-05
1702	0
1714	2.52e-05
1726	5.4e-05
1738	3.96e-05
1750	3.96e-05
1762	3.96e-05
1774	1.44e-05
1786	4.32e-05
1798	1.8e-05
1810	3.6e-05
1822	1.44e-05
1834	3.6e-05
1846	5.04e-05
1858	7.2e-05
1870	4.68e-05
1882	4.32e-05
1894	3.6e-05
1906	2.88e-05
1918	3.24e-05
1930	1.08e-05
1942	2.88e-05
1954	3.96e-05
1966	3.96e-05
1978	5.76e-05
1990	3.96e-05
2002	2.52e-05
2014	1.8e-05
2026	2.88e-05
2038	2.52e-05
2050	3.6e-05
2062	5.76e-05
2074	6.12e-05
2086	7.2e-05
2098	5.4e-05
2110	6.12e-05
2122	6.12e-05
2134	5.76e-05
2146	4.32e-05
2158	4.32e-05
2170	3.96e-05
2182	3.24e-05
2194	3.96e-05
2206	5.04e-05
2218	6.12e-05
2230	5.4e-05
2242	6.84e-05
2254	9.36e-05
2266	7.92e-05
2278	7.56e-05
2290	6.12e-05
2302	5.04e-05
2314	6.48e-05
2326	4.32e-05
2338	5.04e-05
2350	3.96e-05
2362	1.08e-05
2374	7.2e-06
2386	3.6e-06
2398	1.8e-05
2410	1.8e-05
2422	7.2e-06
2434	3.24e-05
2446	1.8e-05
2458	3.96e-05
2470	4.32e-05
2482	2.88e-05
2494	3.24e-05
2506	2.88e-05
2518	3.96e-05
2530	3.96e-05
2542	3.6e-05
2554	3.6e-05
2566	5.4e-05
2578	8.28e-05
2590	8.64e-05
2602	9.72e-05
2614	0.0001044
2626	0.0001404
2638	0.0001512
2650	0.0001188
2662	9.36e-05
2674	7.56e-05
2686	7.92e-05
2698	7.56e-05
2710	8.28e-05
2722	0.000126
2734	0.0001152
2746	9.72e-05
2758	0.0001188
2770	0.0001296
2782	0.0002124
2794	0.0002628
2806	0.0003024
2818	0.0003312
2830	0.0004464
2842	0.0009216
2854	0.0034956
2866	0.0070596
2878	0.0091728
2890	0.006732
2902	0.005454
2914	0.0075168
2926	0.0128628
2938	0.0248184
2950	0.036
2962	0.0228564
2974	0.0086004
2986	0.0021816
2998	0.0007884
3010	0.0005364
3022	0.0008964
3034	0.0027432
3046	0.0044172
3058	0.0040248
3070	0.0025308
3082	0.0006804
3094	0.0003276
3106	0.0001728
3118	9.72e-05
3130	5.04e-05
3142	6.48e-05
3154	5.04e-05
3166	6.48e-05
3178	5.76e-05
3190	6.84e-05
3202	0.0001116
3214	0.0001692
3226	0.0001944
3238	0.0001404
3250	9e-05
3262	2.88e-05
3274	3.96e-05
3286	1.44e-05
3298	8.28e-05
3310	5.76e-05
3322	7.56e-05
3334	8.64e-05
3346	8.28e-05
3358	3.24e-05
3370	5.4e-05
3382	3.24e-05
3394	3.6e-05
3406	2.16e-05
3418	5.4e-05
3430	4.68e-05
3442	8.64e-05
3454	4.32e-05
3466	2.88e-05
3478	6.12e-05
3490	6.84e-05
3502	9.36e-05
3514	6.84e-05
3526	6.48e-05
3538	5.04e-05
3550	8.28e-05
3562	9e-05
3574	6.84e-05
3586	9.72e-05
3598	7.2e-05
3610	0.0001224
3622	8.28e-05
3634	0.000108
3646	9e-05
3658	9.72e-05
3670	9.36e-05
3682	9.72e-05
3694	8.28e-05
3706	0.0001368
3718	9e-05
3730	0.000144
3742	0.0001044
3754	0.0001188
3766	7.56e-05
3778	0.0001044
3790	0.0001152
3802	9.72e-05
3814	0.0001116
3826	0.0001044
3838	0.0001188
