Infrared Spectrum: cis-Cyclooctene
Formula: C 8 H 14
CAS: 931-87-3
State: gas
Instrument: HP-GC/MS/IRD
Origin: NIST Mass Spectrometry Data Center
1/CM	ABSORBANCE
550	0.000216
562	0.0002565
574	0.000405
586	0.00027
598	0.000117
610	5.85e-05
622	1.8e-05
634	9e-05
646	0.000171
658	0.000342
670	0.0006075
682	0.0010665
694	0.001908
706	0.001872
718	0.001116
730	0.0013185
742	0.003465
754	0.004572
766	0.0027405
778	0.000729
790	0.000405
802	0.0003555
814	0.000396
826	0.0003105
838	0.0001305
850	0.000108
862	0.0002655
874	0.0005265
886	0.0007605
898	0.000522
910	0.0002205
922	3.6e-05
934	7.2e-05
946	7.65e-05
958	0.00027
970	0.0004725
982	0.000558
994	0.000324
1006	0.0001215
1018	0.00018
1030	0.0001755
1042	0.000135
1054	0.000144
1066	0.000225
1078	0.0002115
1090	0.0001575
1102	0.0001845
1114	0.0002025
1126	0.000234
1138	0.000144
1150	0.000117
1162	0.000126
1174	0.000198
1186	0.0001305
1198	9.45e-05
1210	0.0001125
1222	0.00018
1234	0.0003285
1246	0.000513
1258	0.000567
1270	0.0005265
1282	0.000432
1294	0.000198
1306	9.45e-05
1318	0.000153
1330	0.0002295
1342	0.000477
1354	0.0007065
1366	0.0005535
1378	0.000261
1390	0.0001305
1402	0.0002205
1414	0.0004275
1426	0.001035
1438	0.002556
1450	0.0040635
1462	0.0042255
1474	0.0033615
1486	0.001809
1498	0.000675
1510	0.0002835
1522	0.0001485
1534	0.0001395
1546	8.1e-05
1558	1.35e-05
1570	6.75e-05
1582	9.45e-05
1594	0.0001125
1606	0.0001215
1618	0.0001485
1630	0.0002655
1642	0.0005085
1654	0.000621
1666	0.000495
1678	0.0002025
1690	0.0001665
1702	0.0002205
1714	0.000279
1726	0.000207
1738	5.85e-05
1750	4.5e-05
1762	4.5e-05
1774	2.25e-05
1786	4.5e-05
1798	3.6e-05
1810	4.5e-05
1822	2.7e-05
1834	4.95e-05
1846	4.5e-05
1858	4.05e-05
1870	4.05e-05
1882	3.6e-05
1894	4.5e-05
1906	4.05e-05
1918	7.2e-05
1930	6.3e-05
1942	6.75e-05
1954	5.85e-05
1966	3.6e-05
1978	1.35e-05
1990	4.5e-06
2002	9e-06
2014	0
2026	9e-06
2038	9e-06
2050	2.25e-05
2062	9e-06
2074	2.25e-05
2086	4.5e-05
2098	3.6e-05
2110	1.8e-05
2122	3.6e-05
2134	2.7e-05
2146	4.05e-05
2158	5.4e-05
2170	3.6e-05
2182	3.6e-05
2194	4.5e-06
2206	2.7e-05
2218	4.5e-05
2230	4.5e-05
2242	7.2e-05
2254	3.6e-05
2266	4.95e-05
2278	6.3e-05
2290	5.4e-05
2302	6.3e-05
2314	6.75e-05
2326	5.85e-05
2338	5.4e-05
2350	4.95e-05
2362	2.7e-05
2374	5.85e-05
2386	6.3e-05
2398	7.2e-05
2410	9e-05
2422	8.55e-05
2434	9.9e-05
2446	9.45e-05
2458	7.65e-05
2470	8.55e-05
2482	7.65e-05
2494	7.2e-05
2506	8.1e-05
2518	9e-05
2530	0.0001125
2542	0.0001035
2554	0.000135
2566	0.0001575
2578	0.0001485
2590	0.000153
2602	0.000207
2614	0.0002565
2626	0.000279
2638	0.0003375
2650	0.000405
2662	0.0005535
2674	0.000747
2686	0.0009
2698	0.000756
2710	0.0005265
2722	0.0004005
2734	0.0004455
2746	0.000468
2758	0.000513
2770	0.000603
2782	0.000729
2794	0.0008595
2806	0.0009855
2818	0.0012735
2830	0.0021285
2842	0.004977
2854	0.0105795
2866	0.012888
2878	0.010755
2890	0.0101025
2902	0.0152055
2914	0.028098
2926	0.0433125
2938	0.0432765
2950	0.025137
2962	0.0098415
2974	0.005193
2986	0.003474
2998	0.003537
3010	0.006507
3022	0.0086715
3034	0.0048105
3046	0.0015345
3058	0.0009135
3070	0.00081
3082	0.00054
3094	0.0004185
3106	0.000369
3118	0.0002925
3130	0.0002205
3142	0.000189
3154	0.000225
3166	0.0002205
3178	0.0002205
3190	0.0002205
3202	0.0002295
3214	0.0002205
3226	0.0001935
3238	0.0001575
3250	0.000153
3262	0.000162
3274	0.000171
3286	0.0001485
3298	0.0001215
3310	0.0001125
3322	0.000117
3334	9.9e-05
3346	0.000144
3358	0.000162
3370	0.0001125
3382	0.0001395
3394	9.45e-05
3406	0.000144
3418	0.000117
3430	6.75e-05
3442	8.55e-05
3454	6.75e-05
3466	8.55e-05
3478	9.9e-05
3490	9.45e-05
3502	8.55e-05
3514	9.45e-05
3526	8.55e-05
3538	8.55e-05
3550	1.35e-05
3562	7.2e-05
3574	5.85e-05
3586	6.75e-05
3598	0.0001035
3610	0.000126
3622	0.000117
3634	5.4e-05
3646	6.75e-05
3658	0.000108
3670	0.000126
3682	0.0001035
3694	0.0001215
3706	8.1e-05
3718	0.0001485
3730	0.0001485
3742	0.000126
3754	0.000108
3766	0.000144
3778	0.000162
3790	0.000144
3802	0.0001215
3814	0.000162
3826	0.0001485
3838	0.000135
