Infrared Spectrum: 1-Chloro-4-methylcyclohexane
Formula: C 7 H 13 Cl
CAS: 931-68-0
State: gas
Instrument: HP-GC/MS/IRD
Origin: NIST Mass Spectrometry Data Center
1/CM	ABSORBANCE
550	0.000966
562	0.000289
574	0.000429
586	0.000279
598	0.000251
610	0.000313
622	6e-05
634	0.000275
646	0.000193
658	4.9e-05
670	6e-06
682	7.2e-05
694	0.000235
706	0.000185
718	0.000329
730	0.000597
742	0.00146
754	0.000914
766	0.000278
778	0.000423
790	0.001316
802	0.000865
814	0.000157
826	0.000167
838	0.000213
850	0.000497
862	0.00109
874	0.001276
886	0.000336
898	0.000131
910	1.2e-05
922	9.8e-05
934	0.000135
946	0.000232
958	0.000732
970	0.000765
982	0.000343
994	0.000324
1006	0.000536
1018	0.000472
1030	0.000175
1042	8.1e-05
1054	0.000173
1066	0.000261
1078	0.000333
1090	0.000337
1102	0.000161
1114	0.000182
1126	0.000188
1138	0.000282
1150	0.000191
1162	0.000179
1174	0.000152
1186	0.000203
1198	0.000247
1210	0.001096
1222	0.001255
1234	0.000528
1246	0.000428
1258	0.000474
1270	0.000616
1282	0.000367
1294	0.000129
1306	0.000195
1318	0.000185
1330	0.000223
1342	0.000538
1354	0.000555
1366	0.000294
1378	0.000405
1390	0.000403
1402	0.000185
1414	0.000113
1426	0.000287
1438	0.000809
1450	0.001566
1462	0.001544
1474	0.000797
1486	0.000241
1498	0.000147
1510	8.4e-05
1522	4.3e-05
1534	3.2e-05
1546	4.8e-05
1558	7.7e-05
1570	6.8e-05
1582	1.4e-05
1594	9e-05
1606	4.5e-05
1618	5.8e-05
1630	6e-05
1642	4.7e-05
1654	4.9e-05
1666	9.3e-05
1678	8.7e-05
1690	6.3e-05
1702	0.000102
1714	0.000111
1726	5.2e-05
1738	4.5e-05
1750	5.5e-05
1762	7.2e-05
1774	3.3e-05
1786	6.2e-05
1798	5.7e-05
1810	3.1e-05
1822	4.5e-05
1834	6.5e-05
1846	7.7e-05
1858	6e-05
1870	4.3e-05
1882	0.00011
1894	6.6e-05
1906	8e-05
1918	5.6e-05
1930	5.2e-05
1942	3.2e-05
1954	5e-05
1966	6.1e-05
1978	3.3e-05
1990	4.5e-05
2002	4.3e-05
2014	7.2e-05
2026	5.1e-05
2038	7.3e-05
2050	7.9e-05
2062	7.2e-05
2074	5.3e-05
2086	5.4e-05
2098	8.9e-05
2110	6.2e-05
2122	5.1e-05
2134	8.6e-05
2146	4.4e-05
2158	5.6e-05
2170	2.2e-05
2182	7.8e-05
2194	6.1e-05
2206	5.6e-05
2218	5.8e-05
2230	4.6e-05
2242	6.3e-05
2254	5.2e-05
2266	7.7e-05
2278	6e-05
2290	6.4e-05
2302	2.9e-05
2314	3.2e-05
2326	3.4e-05
2338	7.9e-05
2350	8e-05
2362	6.8e-05
2374	7e-05
2386	4.6e-05
2398	4.3e-05
2410	4.4e-05
2422	4.8e-05
2434	4.7e-05
2446	6.5e-05
2458	9.4e-05
2470	4.9e-05
2482	4.4e-05
2494	2.3e-05
2506	7.1e-05
2518	7.4e-05
2530	6.8e-05
2542	6.9e-05
2554	6.3e-05
2566	5e-05
2578	2.8e-05
2590	6.1e-05
2602	7.3e-05
2614	4.4e-05
2626	7.2e-05
2638	8.4e-05
2650	8.1e-05
2662	7.7e-05
2674	9.9e-05
2686	8.1e-05
2698	8.5e-05
2710	7.5e-05
2722	0.00012
2734	0.000142
2746	0.000164
2758	0.00011
2770	7.9e-05
2782	0.000125
2794	0.000143
2806	0.000171
2818	0.000265
2830	0.000498
2842	0.001158
2854	0.002442
2866	0.003223
2878	0.003648
2890	0.003243
2902	0.003141
2914	0.004343
2926	0.007008
2938	0.009141
2950	0.00964
2962	0.009374
2974	0.004506
2986	0.00115
2998	0.000362
3010	0.000203
3022	0.000108
3034	0.000166
3046	0.000159
3058	0.00014
3070	9.4e-05
3082	0.000155
3094	9.5e-05
3106	0.000175
3118	0.000111
3130	0.000128
3142	9.3e-05
3154	0.000163
3166	4.8e-05
3178	0.000108
3190	0.000154
3202	0.000147
3214	4.4e-05
3226	0
3238	0.000116
3250	3.5e-05
3262	7.3e-05
3274	0.000105
3286	0.000138
3298	0.000142
3310	0.000124
3322	9.9e-05
3334	0.000215
3346	0.000252
3358	0.00017
3370	0.000119
3382	0.000193
3394	0.00023
3406	0.00015
3418	0.000161
3430	0.000212
3442	0.000164
3454	0.000197
3466	0.000242
3478	0.000161
3490	0.000172
3502	0.000135
3514	0.000151
3526	0.000196
3538	0.000211
3550	0.000205
3562	0.000177
3574	0.0003
3586	0.00017
3598	0.000222
3610	0.000277
3622	0.000268
3634	0.00024
3646	0.000272
3658	0.000313
3670	0.000352
3682	0.000308
3694	0.000326
3706	0.000268
3718	0.000225
3730	0.000246
3742	0.00024
3754	0.000227
3766	0.000273
3778	0.000244
3790	0.000205
3802	0.00027
3814	0.000326
3826	0.000317
3838	0.00032
