Infrared Spectrum: 1-Methoxycyclohexene
Formula: C 7 H 12 O
CAS: 931-57-7
State: gas
Instrument: HP-GC/MS/IRD
Origin: NIST Mass Spectrometry Data Center
1/CM	ABSORBANCE
550	9.6e-05
562	0.000112
574	5.8e-05
586	0.000144
598	0.000158
610	0.000182
622	0.00044
634	0.000646
646	0.000568
658	0.0002
670	0.000164
682	6.2e-05
694	3.4e-05
706	0.000148
718	0.000142
730	0.000178
742	0.000184
754	0.000572
766	0.001372
778	0.002018
790	0.001544
802	0.00097
814	0.000764
826	0.000732
838	0.000686
850	0.00071
862	0.000614
874	0.000342
886	0.00022
898	0.000292
910	0.000484
922	0.000586
934	0.000762
946	0.001138
958	0.001138
970	0.000834
982	0.000536
994	0.000448
1006	0.000746
1018	0.00158
1030	0.002192
1042	0.001966
1054	0.001354
1066	0.001062
1078	0.000926
1090	0.000798
1102	0.000686
1114	0.00075
1126	0.001484
1138	0.003214
1150	0.006526
1162	0.008004
1174	0.007088
1186	0.005914
1198	0.008146
1210	0.012168
1222	0.009582
1234	0.003178
1246	0.001754
1258	0.001902
1270	0.001906
1282	0.001244
1294	0.000794
1306	0.000698
1318	0.000846
1330	0.001548
1342	0.001946
1354	0.001868
1366	0.002856
1378	0.003342
1390	0.001822
1402	0.00071
1414	0.0007
1426	0.000946
1438	0.001624
1450	0.002438
1462	0.00231
1474	0.00164
1486	0.000896
1498	0.000386
1510	0.00023
1522	0.000198
1534	0.000208
1546	0.000264
1558	0.000296
1570	0.000292
1582	0.000248
1594	0.000298
1606	0.0003
1618	0.000368
1630	0.000592
1642	0.00146
1654	0.004116
1666	0.00624
1678	0.004718
1690	0.00134
1702	0.000488
1714	0.000236
1726	0.000172
1738	0.000152
1750	9.6e-05
1762	0.00011
1774	0.00011
1786	0.000116
1798	0.000132
1810	0.000104
1822	0.000106
1834	0.000134
1846	0.000158
1858	0.000138
1870	7.4e-05
1882	6.6e-05
1894	6.2e-05
1906	6.4e-05
1918	0.000104
1930	0.000112
1942	9.6e-05
1954	8.4e-05
1966	9.6e-05
1978	0.000126
1990	0.000142
2002	0.000108
2014	8e-05
2026	9.2e-05
2038	0.000122
2050	0.00015
2062	0.000142
2074	0.000116
2086	0.000114
2098	7.2e-05
2110	8e-05
2122	7e-05
2134	6e-05
2146	8.2e-05
2158	0.000104
2170	0.000132
2182	0.000104
2194	0.0001
2206	8.8e-05
2218	7.6e-05
2230	0.000108
2242	8.2e-05
2254	6.4e-05
2266	3.4e-05
2278	3.4e-05
2290	5.8e-05
2302	5.6e-05
2314	2.4e-05
2326	0
2338	1e-05
2350	3.8e-05
2362	1.2e-05
2374	6.6e-05
2386	2.6e-05
2398	7e-05
2410	8e-05
2422	8.8e-05
2434	3.4e-05
2446	3e-05
2458	1.6e-05
2470	2.2e-05
2482	2.6e-05
2494	1e-05
2506	2.4e-05
2518	0
2530	6e-06
2542	4.2e-05
2554	1.6e-05
2566	4.4e-05
2578	4.6e-05
2590	5.2e-05
2602	6.6e-05
2614	8.2e-05
2626	0.000102
2638	0.000146
2650	0.000196
2662	0.000228
2674	0.000234
2686	0.00015
2698	0.000104
2710	8.8e-05
2722	0.000142
2734	0.000138
2746	0.000148
2758	0.00019
2770	0.000254
2782	0.000388
2794	0.00051
2806	0.00075
2818	0.00119
2830	0.00272
2842	0.005346
2854	0.006794
2866	0.006506
2878	0.004976
2890	0.004816
2902	0.006112
2914	0.008844
2926	0.013302
2938	0.019642
2950	0.016326
2962	0.00756
2974	0.002632
2986	0.002168
2998	0.003022
3010	0.0026
3022	0.001358
3034	0.00097
3046	0.000906
3058	0.001092
3070	0.001154
3082	0.000766
3094	0.000374
3106	0.00027
3118	0.000234
3130	0.00016
3142	0.000172
3154	0.0001
3166	0.000154
3178	0.00012
3190	0.000118
3202	0.000116
3214	8.6e-05
3226	8e-05
3238	9e-05
3250	8.6e-05
3262	0.000112
3274	3.2e-05
3286	2.6e-05
3298	6.6e-05
3310	4.4e-05
3322	3.4e-05
3334	8.6e-05
3346	5.6e-05
3358	6.2e-05
3370	1.4e-05
3382	8e-06
3394	7.8e-05
3406	9e-05
3418	9e-05
3430	4.6e-05
3442	4.4e-05
3454	6.6e-05
3466	8.6e-05
3478	8.6e-05
3490	5.6e-05
3502	0.000108
3514	5e-05
3526	5.4e-05
3538	0
3550	5e-05
3562	9.2e-05
3574	4.2e-05
3586	0.000114
3598	0.000102
3610	6e-05
3622	9e-05
3634	9.2e-05
3646	7.8e-05
3658	0.000108
3670	8.4e-05
3682	0.000122
3694	6.4e-05
3706	9.4e-05
3718	8e-05
3730	2.8e-05
3742	7.8e-05
3754	5.8e-05
3766	7.2e-05
3778	8.6e-05
3790	9.6e-05
3802	1.8e-05
3814	5.2e-05
3826	6.6e-05
3838	6.2e-05
