Infrared Spectrum: Carbamic acid, dimethyldithio-, 2-aminoethyl ester, hydrobromide
Formula: C5 H13 Br N2 S2
CAS: 93113-98-5
State: SOLID (0.9 mg / 650 mg KBr DISC)
Class: COBLENTZ III
Instrument: PERKIN-ELMER 21 (GRATING)
Instrument parameters: FILTER CHANGE ABOUT 1020 CM^-^1
Resolution: 2
Origin: SOUTHERN RESEARCH INSTITUTE
1/CM	TRANSMITTANCE
594.91	0.7915
603.957	0.7913
613.003	0.7901
622.05	0.7889
631.096	0.7866
640.143	0.7845
649.189	0.7843
658.236	0.7837
667.282	0.7843
676.329	0.7886
685.375	0.7928
694.422	0.794
703.468	0.7932
712.515	0.7886
721.562	0.7765
730.608	0.7618
739.655	0.8282
748.701	0.8319
757.748	0.8261
766.794	0.8474
775.841	0.8561
784.887	0.8306
793.934	0.7511
802.98	0.8101
812.027	0.8777
821.073	0.8778
830.12	0.8738
839.167	0.8685
848.213	0.8557
857.26	0.8294
866.306	0.7801
875.353	0.7225
884.399	0.7208
893.446	0.6698
902.492	0.8258
911.539	0.8168
920.585	0.7792
929.632	0.7582
938.679	0.7229
947.725	0.7783
956.772	0.7652
965.818	0.6568
974.865	0.3656
983.911	0.2835
992.958	0.4468
1002	0.6169
1011.05	0.758
1020.1	0.7773
1029.14	0.8011
1038.19	0.7729
1047.24	0.7627
1056.28	0.6567
1065.33	0.7675
1074.38	0.7732
1083.42	0.7472
1092.47	0.7155
1101.52	0.6516
1110.56	0.7405
1119.61	0.7378
1128.66	0.6655
1137.7	0.5734
1146.75	0.5835
1155.8	0.6116
1164.84	0.6842
1173.89	0.7817
1182.94	0.825
1191.98	0.8303
1201.03	0.8253
1210.07	0.8146
1219.12	0.7976
1228.17	0.7712
1237.21	0.6729
1246.26	0.4082
1255.31	0.3161
1264.35	0.6446
1273.4	0.6875
1282.45	0.7508
1291.49	0.8195
1300.54	0.8169
1309.59	0.7852
1318.63	0.6575
1327.68	0.7646
1336.73	0.7658
1345.77	0.7435
1354.82	0.6738
1363.87	0.5158
1372.91	0.3413
1381.96	0.2472
1391.01	0.3083
1400.05	0.6003
1409.1	0.663
1418.15	0.7487
1427.19	0.7433
1436.24	0.6977
1445.28	0.5923
1454.33	0.5934
1463.38	0.6341
1472.42	0.6031
1481.47	0.5371
1490.52	0.3996
1499.56	0.2045
1508.61	0.2527
1517.66	0.3852
1526.7	0.5769
1535.75	0.6342
1544.8	0.618
1553.84	0.5427
1562.89	0.5283
1571.94	0.5291
1580.98	0.5271
1590.03	0.5642
1599.08	0.6986
1608.12	0.7759
1617.17	0.835
1626.22	0.8604
1635.26	0.8758
1644.31	0.8845
1653.36	0.8996
1662.4	0.9039
1671.45	0.907
1680.49	0.9082
1689.54	0.9084
1698.59	0.9079
1707.63	0.9077
1716.68	0.9069
1725.73	0.9077
1734.77	0.9093
1743.82	0.9105
1752.87	0.9088
1761.91	0.9061
1770.96	0.9036
1780.01	0.9031
1789.05	0.902
1798.1	0.8985
1807.15	0.8928
1816.19	0.8899
1825.24	0.8896
1834.29	0.889
1843.33	0.8884
1852.38	0.889
1861.43	0.8906
1870.47	0.8926
1879.52	0.894
1888.57	0.8951
1897.61	0.896
1906.66	0.8961
1915.7	0.8958
1924.75	0.895
1933.8	0.8949
1942.84	0.8954
1951.89	0.8957
1960.94	0.8958
1969.98	0.8961
1979.03	0.8967
1988.08	0.8977
1997.12	0.8992
2006.17	0.9003
2015.22	0.8982
2024.26	0.8962
2033.31	0.8954
2042.36	0.8948
2051.4	0.8953
2060.45	0.8958
2069.5	0.8961
2078.54	0.8962
2087.59	0.8954
2096.64	0.8946
2105.68	0.8937
2114.73	0.8928
2123.78	0.891
2132.82	0.8886
2141.87	0.886
2150.91	0.8833
2159.96	0.8812
2169.01	0.8799
2178.05	0.8793
2187.1	0.8796
2196.15	0.8804
2205.19	0.8812
2214.24	0.8806
2223.29	0.8794
2232.33	0.878
2241.38	0.8746
2250.43	0.8718
2259.47	0.8707
2268.52	0.87
2277.57	0.8695
2286.61	0.8693
2295.66	0.8658
2304.71	0.8607
2313.75	0.8563
2322.8	0.8518
2331.85	0.8467
2340.89	0.8412
2349.94	0.835
2358.99	0.8308
2368.03	0.8297
2377.08	0.8277
2386.12	0.8166
2395.17	0.8048
2404.22	0.7946
2413.26	0.7919
2422.31	0.7952
2431.36	0.798
2440.4	0.7985
2449.45	0.7985
2458.5	0.7962
2467.54	0.7886
2476.59	0.7801
2485.64	0.7762
2494.68	0.7743
2503.73	0.7738
2512.78	0.7736
2521.82	0.7724
2530.87	0.768
2539.92	0.7584
2548.96	0.7473
2558.01	0.7303
2567.06	0.7004
2576.1	0.6889
2585.15	0.6866
2594.2	0.6843
2603.24	0.6813
2612.29	0.6738
2621.33	0.6691
2630.38	0.6688
2639.43	0.6673
2648.47	0.6626
2657.52	0.6556
2666.57	0.6505
2675.61	0.6484
2684.66	0.6469
2693.71	0.6445
2702.75	0.6387
2711.8	0.623
2720.85	0.6046
2729.89	0.5853
2738.94	0.5689
2747.99	0.5542
2757.03	0.5423
2766.08	0.5315
2775.13	0.5187
2784.17	0.5007
2793.22	0.4656
2802.27	0.4372
2811.31	0.4236
2820.36	0.4049
2829.41	0.3844
2838.45	0.3623
2847.5	0.3313
2856.54	0.3074
2865.59	0.2871
2874.64	0.2659
2883.68	0.2414
2892.73	0.2185
2901.78	0.1981
2910.82	0.1844
2919.87	0.1815
2928.92	0.1854
2937.96	0.1947
2947.01	0.2056
2956.06	0.209
2965.1	0.2076
2974.15	0.2049
2983.2	0.2031
2992.24	0.2024
3001.29	0.2033
3010.34	0.208
3019.38	0.2182
3028.43	0.2331
3037.48	0.2436
3046.52	0.2537
3055.57	0.271
3064.62	0.2871
3073.66	0.2983
3082.71	0.307
3091.75	0.3174
3100.8	0.3317
3109.85	0.3448
3118.89	0.3518
3127.94	0.3647
3136.99	0.3856
3146.03	0.4071
3155.08	0.4303
3164.13	0.4665
3173.17	0.5106
3182.22	0.5533
3191.27	0.5994
3200.31	0.6353
3209.36	0.6639
3218.41	0.691
3227.45	0.7429
3236.5	0.7607
3245.55	0.7748
3254.59	0.7855
3263.64	0.7957
3272.69	0.8011
3281.73	0.8051
3290.78	0.8083
3299.83	0.8108
3308.87	0.8121
3317.92	0.8117
3326.96	0.8107
3336.01	0.8094
3345.06	0.8081
3354.1	0.8066
3363.15	0.8036
3372.2	0.7999
3381.24	0.7959
3390.29	0.7912
3399.34	0.7864
3408.38	0.7811
3417.43	0.7766
3426.48	0.7729
3435.52	0.7699
3444.57	0.7671
3453.62	0.7649
3462.66	0.7625
3471.71	0.7609
3480.76	0.7604
3489.8	0.7593
3498.85	0.7615
3507.9	0.7635
3516.94	0.7654
3525.99	0.7673
3535.04	0.7694
3544.08	0.7705
3553.13	0.7717
3562.17	0.7733
3571.22	0.775
3580.27	0.777
3589.31	0.7789
3598.36	0.7812
3607.41	0.7835
3616.45	0.7859
3625.5	0.7885
3634.55	0.7893
3643.59	0.7977
3652.64	0.799
3661.69	0.8004
3670.73	0.8046
3679.78	0.8045
3688.83	0.8042
3697.87	0.8038
3706.92	0.8028
3715.97	0.8009
3725.01	0.8024
3734.06	0.8047
3743.11	0.807
3752.15	0.8065
3761.2	0.8029
3770.25	0.7993
3779.29	0.7986
3788.34	0.7999
3797.38	0.8022
3806.43	0.8049
3815.48	0.8062
3824.52	0.8071
3833.57	0.8051
3842.62	0.8009
3851.66	0.7975
3860.71	0.7953
3869.76	0.7936
3878.8	0.7921
3887.85	0.791
3896.9	0.79
3905.94	0.7893
3914.99	0.7885
