Infrared Spectrum: Succinimide, 2-[2-(2-oxocyclohexyl)-2-oxoethyl]-
Formula: C12 H15 N O4
CAS: 93136-49-3
State: SOLID (SEMI-SOLID, NEAT)
Class: COBLENTZ III
Instrument: PERKIN-ELMER 21 (GRATING)
Instrument parameters: FILTER CHANGE ABOUT 1090 CM^-^1
Sampling: TRANSMISSION
Resolution: 2
Origin: SOUTHERN RESEARCH INSTITUTE
1/CM	TRANSMITTANCE
601	0.4023
610.026	0.3961
619.053	0.385
628.079	0.3807
637.106	0.3874
646.132	0.4421
655.159	0.5885
664.185	0.6102
673.212	0.6164
682.238	0.6139
691.265	0.605
700.291	0.5435
709.318	0.5293
718.344	0.5021
727.371	0.4944
736.397	0.4653
745.424	0.4199
754.45	0.3894
763.477	0.3904
772.503	0.3949
781.53	0.3874
790.556	0.3733
799.583	0.3572
808.609	0.3105
817.635	0.3666
826.662	0.3891
835.688	0.4252
844.715	0.4248
853.741	0.3768
862.768	0.4383
871.794	0.4798
880.821	0.4658
889.847	0.434
898.874	0.4039
907.9	0.4207
916.927	0.4736
925.953	0.5206
934.98	0.5376
944.006	0.5321
953.033	0.4884
962.059	0.456
971.086	0.4913
980.112	0.6332
989.139	0.6588
998.165	0.6465
1007.19	0.6174
1016.22	0.5263
1025.24	0.4903
1034.27	0.4356
1043.3	0.4964
1052.32	0.638
1061.35	0.6484
1070.38	0.5917
1079.4	0.6029
1088.43	0.592
1097.46	0.5374
1106.48	0.5732
1115.51	0.5516
1124.54	0.4339
1133.56	0.3849
1142.59	0.3366
1151.62	0.3618
1160.64	0.2259
1169.67	0.0995
1178.69	0.0762
1187.72	0.0829
1196.75	0.1033
1205.77	0.1618
1214.8	0.1865
1223.83	0.1676
1232.85	0.1732
1241.88	0.1942
1250.91	0.1604
1259.93	0.1799
1268.96	0.3488
1277.99	0.3237
1287.01	0.2872
1296.04	0.2382
1305.07	0.1969
1314.09	0.2029
1323.12	0.2492
1332.14	0.2532
1341.17	0.1841
1350.2	0.0969
1359.22	0.0984
1368.25	0.1194
1377.28	0.1665
1386.3	0.2487
1395.33	0.2699
1404.36	0.2438
1413.38	0.1756
1422.41	0.1742
1431.44	0.2516
1440.46	0.2668
1449.49	0.1758
1458.52	0.2332
1467.54	0.2617
1476.57	0.316
1485.59	0.3686
1494.62	0.506
1503.65	0.5738
1512.67	0.5773
1521.7	0.5708
1530.73	0.5367
1539.75	0.5002
1548.78	0.4346
1557.81	0.3422
1566.83	0.2261
1575.86	0.1525
1584.89	0.1093
1593.91	0.0999
1602.94	0.0907
1611.97	0.0809
1620.99	0.0848
1630.02	0.0897
1639.05	0.0979
1648.07	0.1567
1657.1	0.2551
1666.12	0.2502
1675.15	0.1958
1684.18	0.0821
1693.2	0.0686
1702.23	0.0657
1711.26	0.0688
1720.28	0.0738
1729.31	0.0945
1738.34	0.1587
1747.36	0.1957
1756.39	0.1962
1765.42	0.1787
1774.44	0.1663
1783.47	0.1818
1792.5	0.3488
1801.52	0.4484
1810.55	0.5141
1819.57	0.5883
1828.6	0.6608
1837.63	0.7249
1846.65	0.7646
1855.68	0.7924
1864.71	0.807
1873.73	0.8135
1882.76	0.8166
1891.79	0.8181
1900.81	0.8194
1909.84	0.8181
1918.87	0.8158
1927.89	0.8145
1936.92	0.8146
1945.95	0.8169
1954.97	0.8217
1964	0.8264
1973.02	0.831
1982.05	0.8345
1991.08	0.8372
2000.1	0.8417
2009.13	0.8462
2018.16	0.8493
2027.18	0.852
2036.21	0.8525
2045.24	0.8526
2054.26	0.8526
2063.29	0.8519
2072.32	0.8512
2081.34	0.8504
2090.37	0.8496
2099.4	0.8479
2108.42	0.848
2117.45	0.8486
2126.47	0.8497
2135.5	0.8468
2144.53	0.8489
2153.55	0.8493
2162.58	0.8506
2171.61	0.853
2180.63	0.8535
2189.66	0.8532
2198.69	0.8507
2207.71	0.8462
2216.74	0.8417
2225.77	0.8379
2234.79	0.8363
2243.82	0.8378
2252.85	0.8344
2261.87	0.8325
2270.9	0.8322
2279.92	0.8253
2288.95	0.8177
2297.98	0.8137
2307	0.8125
2316.03	0.8116
2325.06	0.8106
2334.08	0.8093
2343.11	0.808
2352.14	0.8061
2361.16	0.8039
2370.19	0.8027
2379.22	0.8025
2388.24	0.8053
2397.27	0.8093
2406.3	0.812
2415.32	0.8138
2424.35	0.8165
2433.38	0.8247
2442.4	0.8033
2451.43	0.8032
2460.45	0.7898
2469.48	0.7848
2478.51	0.7828
2487.53	0.7816
2496.56	0.7793
2505.59	0.7645
2514.61	0.7532
2523.64	0.7504
2532.67	0.7576
2541.69	0.7595
2550.72	0.7605
2559.75	0.7583
2568.77	0.7532
2577.8	0.7507
2586.83	0.751
2595.85	0.7538
2604.88	0.755
2613.9	0.7493
2622.93	0.7412
2631.96	0.7361
2640.98	0.7406
2650.01	0.7366
2659.04	0.7295
2668.06	0.7266
2677.09	0.7205
2686.12	0.7163
2695.14	0.7122
2704.17	0.7024
2713.2	0.6745
2722.22	0.6609
2731.25	0.6475
2740.28	0.6256
2749.3	0.6171
2758.33	0.5955
2767.35	0.5891
2776.38	0.5953
2785.41	0.5948
2794.43	0.6069
2803.46	0.6161
2812.49	0.6082
2821.51	0.5914
2830.54	0.5679
2839.57	0.5507
2848.59	0.417
2857.62	0.3588
2866.65	0.3577
2875.67	0.3667
2884.7	0.3805
2893.73	0.3933
2902.75	0.3899
2911.78	0.3588
2920.8	0.2957
2929.83	0.2354
2938.86	0.2142
2947.88	0.2123
2956.91	0.2317
2965.94	0.3254
2974.96	0.4188
2983.99	0.4436
2993.02	0.4541
3002.04	0.4574
3011.07	0.4581
3020.1	0.4565
3029.12	0.4551
3038.15	0.4364
3047.18	0.4231
3056.2	0.3986
3065.23	0.3801
3074.26	0.361
3083.28	0.345
3092.31	0.3398
3101.33	0.3619
3110.36	0.3628
3119.39	0.3547
3128.41	0.3404
3137.44	0.3322
3146.47	0.3078
3155.49	0.2949
3164.52	0.28
3173.55	0.2631
3182.57	0.2457
3191.6	0.2429
3200.63	0.2459
3209.65	0.2482
3218.68	0.2491
3227.71	0.2474
3236.73	0.2542
3245.76	0.2627
3254.78	0.2669
3263.81	0.2709
3272.84	0.2749
3281.86	0.2846
3290.89	0.3032
3299.92	0.3225
3308.94	0.3413
3317.97	0.3675
3327	0.3901
3336.02	0.4123
3345.05	0.439
3354.08	0.4679
3363.1	0.5312
3372.13	0.5514
3381.16	0.6203
3390.18	0.6505
3399.21	0.6591
3408.23	0.692
3417.26	0.7022
3426.29	0.7217
3435.31	0.7332
3444.34	0.7492
3453.37	0.7527
3462.39	0.755
3471.42	0.7659
3480.45	0.7626
3489.47	0.7563
3498.5	0.7591
3507.53	0.7804
3516.55	0.7956
3525.58	0.8087
3534.61	0.7973
3543.63	0.8077
3552.66	0.7938
3561.68	0.7958
3570.71	0.8258
3579.74	0.8295
3588.76	0.8399
3597.79	0.8445
3606.82	0.8474
3615.84	0.8519
3624.87	0.8523
3633.9	0.8446
3642.92	0.8484
3651.95	0.8549
3660.98	0.862
3670	0.8697
3679.03	0.8722
3688.06	0.8708
3697.08	0.8871
3706.11	0.8875
3715.14	0.888
3724.16	0.8947
3733.19	0.8986
3742.21	0.8883
3751.24	0.8903
3760.27	0.8935
3769.29	0.8926
3778.32	0.8884
3787.35	0.8917
3796.37	0.898
3805.4	0.897
3814.43	0.8978
3823.45	0.8951
3832.48	0.8935
3841.51	0.8925
3850.53	0.8913
3859.56	0.8905
3868.59	0.8865
3877.61	0.8793
3886.64	0.8738
3895.66	0.8674
3904.69	0.868
3913.72	0.888
3922.74	0.8868
3931.77	0.8827
3940.8	0.884
3949.82	0.8895
3958.85	0.8963
3967.88	0.8987
3976.9	0.8923
3985.93	0.8993
3994.96	0.8903
4003.98	0.8686
