Infrared Spectrum: P-METHOXY CARBANILIC ACID, n-OCTYL ESTER
Formula: C16 H25 N O3
CAS: 93146-34-0
State: SOLID (1.6 mg / 200 mg KBr)
Class: COBLENTZ
Instrument: Not specified, most likely a grating spectrometer.
Sampling: TRANSMISSION
Resolution: 4
Origin: CITRUS EXPERIMENT STATION, UNIVERSITY OF FLORIDA (G. EDWARDS)
MICROMETERS	TRANSMITTANCE
2.033	0.921
2.06624	0.92
2.09948	0.913
2.13272	0.916
2.16595	0.916
2.19919	0.909
2.23243	0.91
2.26567	0.91
2.29891	0.909
2.33215	0.906
2.36539	0.91
2.39862	0.91
2.43186	0.909
2.4651	0.906
2.49834	0.905
2.53158	0.906
2.56482	0.904
2.59806	0.9
2.6313	0.91
2.66453	0.91
2.69777	0.901
2.73101	0.893
2.76425	0.882
2.79749	0.87
2.83073	0.861
2.86397	0.845
2.8972	0.83
2.93044	0.798
2.96368	0.552
2.99692	0.372
3.03016	0.812
3.0634	0.862
3.09664	0.888
3.12987	0.893
3.16311	0.889
3.19635	0.889
3.22959	0.86
3.26283	0.86
3.29607	0.842
3.32931	0.752
3.36255	0.573
3.39578	0.482
3.42902	0.694
3.46226	0.561
3.4955	0.784
3.52874	0.865
3.56198	0.866
3.59522	0.882
3.62845	0.89
3.66169	0.893
3.69493	0.892
3.72817	0.892
3.76141	0.892
3.79465	0.892
3.82789	0.892
3.86112	0.893
3.89436	0.894
3.9276	0.896
3.96084	0.896
3.99408	0.894
4.02732	0.892
4.06056	0.897
4.0938	0.894
4.12703	0.889
4.16027	0.884
4.19351	0.881
4.22675	0.889
4.25999	0.892
4.29323	0.892
4.32647	0.896
4.3597	0.896
4.39294	0.894
4.42618	0.9
4.45942	0.894
4.49266	0.889
4.5259	0.892
4.55914	0.893
4.59237	0.889
4.62561	0.889
4.65885	0.886
4.69209	0.886
4.72533	0.884
4.75857	0.882
4.79181	0.882
4.82504	0.88
4.85828	0.882
4.89152	0.88
4.92476	0.881
4.958	0.884
4.99124	0.884
5.02448	0.882
5.05772	0.882
5.09095	0.882
5.12419	0.882
5.15743	0.878
5.19067	0.88
5.22391	0.877
5.25715	0.874
5.29039	0.868
5.32362	0.86
5.35686	0.868
5.3901	0.865
5.42334	0.864
5.45658	0.862
5.48982	0.858
5.52306	0.856
5.55629	0.856
5.58953	0.849
5.62277	0.85
5.65601	0.834
5.68925	0.8
5.72249	0.772
5.75573	0.75
5.78897	0.569
5.8222	0.468
5.85544	0.29
5.88868	0.424
5.92192	0.724
5.95516	0.766
5.9884	0.766
6.02164	0.79
6.05487	0.82
6.08811	0.808
6.12135	0.78
6.15459	0.76
6.18783	0.758
6.22107	0.645
6.25431	0.782
6.28754	0.808
6.32078	0.77
6.35402	0.688
6.38726	0.461
6.4205	0.3
6.45374	0.242
6.48698	0.304
6.52022	0.434
6.55345	0.425
6.58669	0.624
6.61993	0.725
6.65317	0.75
6.68641	0.714
6.71965	0.629
6.75289	0.64
6.78612	0.593
6.81936	0.742
6.8526	0.75
6.88584	0.724
6.91908	0.726
6.95232	0.781
6.98556	0.756
7.01879	0.529
7.05203	0.592
7.08527	0.745
7.11851	0.8
7.15175	0.801
7.18499	0.79
7.21823	0.801
7.25146	0.796
7.2847	0.802
7.31794	0.808
7.35118	0.788
7.38442	0.768
7.41766	0.732
7.4509	0.713
7.48414	0.714
7.51737	0.706
7.55061	0.721
7.58385	0.701
7.61709	0.684
7.65033	0.642
7.68357	0.732
7.71681	0.746
7.75004	0.742
7.78328	0.726
7.81652	0.664
7.84976	0.512
7.883	0.369
7.91624	0.496
7.94948	0.406
7.98271	0.162
8.01595	0.094
8.04919	0.132
8.08243	0.23
8.11567	0.385
8.14891	0.542
8.18215	0.614
8.21539	0.632
8.24862	0.718
8.28186	0.744
8.3151	0.772
8.34834	0.774
8.38158	0.758
8.41482	0.582
8.44806	0.716
8.48129	0.67
8.51453	0.66
8.54777	0.774
8.58101	0.806
8.61425	0.822
8.64749	0.821
8.68073	0.824
8.71396	0.832
8.7472	0.825
8.78044	0.817
8.81368	0.804
8.84692	0.798
8.88016	0.81
8.9134	0.813
8.94664	0.801
8.97987	0.744
9.01311	0.721
9.04635	0.781
9.07959	0.777
9.11283	0.737
9.14607	0.592
9.17931	0.446
9.21254	0.57
9.24578	0.693
9.27902	0.708
9.31226	0.661
9.3455	0.652
9.37874	0.709
9.41198	0.713
9.44521	0.77
9.47845	0.792
9.51169	0.782
9.54493	0.753
9.57817	0.697
9.61141	0.596
9.64465	0.482
9.67789	0.5
9.71112	0.642
9.74436	0.729
9.7776	0.772
9.81084	0.8
9.84408	0.798
9.87732	0.792
9.91056	0.833
9.94379	0.837
9.97703	0.841
10.0103	0.841
10.0435	0.84
10.0767	0.841
10.11	0.846
10.1432	0.844
10.1765	0.852
10.2097	0.85
10.2429	0.844
10.2762	0.82
10.3094	0.822
10.3427	0.841
10.3759	0.854
10.4091	0.856
10.4424	0.857
10.4756	0.857
10.5089	0.854
10.5421	0.853
10.5753	0.857
10.6086	0.861
10.6418	0.862
10.675	0.864
10.7083	0.861
10.7415	0.861
10.7748	0.86
10.808	0.858
10.8412	0.856
10.8745	0.86
10.9077	0.861
10.941	0.861
10.9742	0.861
11.0074	0.861
11.0407	0.861
11.0739	0.861
11.1071	0.862
11.1404	0.862
11.1736	0.861
11.2069	0.858
11.2401	0.86
11.2733	0.862
11.3066	0.865
11.3398	0.868
11.3731	0.868
11.4063	0.868
11.4395	0.864
11.4728	0.862
11.506	0.862
11.5392	0.857
11.5725	0.861
11.6057	0.86
11.639	0.856
11.6722	0.86
11.7054	0.861
11.7387	0.862
11.7719	0.862
11.8052	0.86
11.8384	0.854
11.8716	0.853
11.9049	0.853
11.9381	0.845
11.9714	0.838
12.0046	0.82
12.0378	0.794
12.0711	0.736
12.1043	0.558
12.1375	0.35
12.1708	0.44
12.204	0.686
12.2373	0.789
12.2705	0.813
12.3037	0.801
12.337	0.812
12.3702	0.838
12.4035	0.846
12.4367	0.853
12.4699	0.858
12.5032	0.86
12.5364	0.862
12.5696	0.861
12.6029	0.86
12.6361	0.856
12.6694	0.845
12.7026	0.834
12.7358	0.81
12.7691	0.773
12.8023	0.732
12.8356	0.701
12.8688	0.734
12.902	0.758
12.9353	0.762
12.9685	0.77
13.0017	0.808
13.035	0.844
13.0682	0.862
13.1015	0.87
13.1347	0.873
13.1679	0.87
13.2012	0.852
13.2344	0.856
13.2677	0.873
13.3009	0.882
13.3341	0.882
13.3674	0.88
13.4006	0.869
13.4339	0.85
13.4671	0.821
13.5003	0.793
13.5336	0.784
13.5668	0.813
13.6	0.84
13.6333	0.86
13.6665	0.86
13.6998	0.857
13.733	0.829
13.7662	0.774
13.7995	0.784
13.8327	0.833
13.866	0.882
13.8992	0.909
13.9324	0.926
13.9657	0.922
13.9989	0.925
14.0321	0.926
14.0654	0.928
14.0986	0.932
14.1319	0.932
14.1651	0.93
14.1983	0.928
14.2316	0.93
14.2648	0.929
14.2981	0.92
14.3313	0.913
14.3645	0.908
14.3978	0.896
14.431	0.889
14.4642	0.882
14.4975	0.88
14.5307	0.877
14.564	0.87
14.5972	0.866
14.6304	0.857
14.6637	0.853
14.6969	0.841
14.7302	0.833
14.7634	0.832
14.7966	0.818
14.8299	0.806
14.8631	0.798
14.8964	0.777
14.9296	0.738
14.9628	0.73
14.9961	0.746
15.0293	0.766
