Infrared Spectrum: 1-BENZYL-3-(1-CARBETHOXY-3-METHYLBUTYL) UREA
Formula: C16 H24 N2 O3
CAS: 93142-97-3
State: SOLID (KBr PRESSING)
Melting point: 49 C
Class: COBLENTZ
Instrument: Not specified, most likely a prism, grating, or hybrid spectrometer.
Sampling: TRANSMISSION
Resolution: 4
Origin: EASTMAN KODAK COMPANY, RESEARCH LABORATORIES, ROCHESTER, N.Y.
MICROMETERS	TRANSMITTANCE
2.162	0.605
2.19721	0.605
2.23242	0.605
2.26764	0.607
2.30285	0.611
2.33806	0.611
2.37327	0.612
2.40848	0.612
2.44369	0.614
2.47891	0.618
2.51412	0.621
2.54933	0.623
2.58454	0.632
2.61975	0.635
2.65496	0.635
2.69018	0.632
2.72539	0.602
2.7606	0.555
2.79581	0.506
2.83102	0.493
2.86623	0.471
2.90145	0.413
2.93666	0.232
2.97187	0.229
3.00708	0.411
3.04229	0.502
3.0775	0.551
3.11272	0.581
3.14793	0.593
3.18314	0.604
3.21835	0.619
3.25356	0.614
3.28877	0.591
3.32399	0.5
3.3592	0.399
3.39441	0.511
3.42962	0.563
3.46483	0.612
3.50004	0.672
3.53526	0.702
3.57047	0.712
3.60568	0.728
3.64089	0.73
3.6761	0.73
3.71132	0.732
3.74653	0.74
3.78174	0.746
3.81695	0.749
3.85216	0.753
3.88737	0.754
3.92259	0.758
3.9578	0.758
3.99301	0.765
4.02822	0.772
4.06343	0.777
4.09864	0.781
4.13386	0.782
4.16907	0.784
4.20428	0.788
4.23949	0.791
4.2747	0.796
4.30991	0.8
4.34513	0.802
4.38034	0.802
4.41555	0.803
4.45076	0.803
4.48597	0.803
4.52118	0.803
4.5564	0.805
4.59161	0.81
4.62682	0.812
4.66203	0.814
4.69724	0.819
4.73245	0.824
4.76767	0.823
4.80288	0.824
4.83809	0.824
4.8733	0.824
4.90851	0.824
4.94372	0.826
4.97894	0.826
5.01415	0.826
5.04936	0.826
5.08457	0.826
5.11978	0.826
5.15499	0.828
5.19021	0.831
5.22542	0.833
5.26063	0.833
5.29584	0.833
5.33105	0.83
5.36627	0.835
5.40148	0.835
5.43669	0.837
5.4719	0.833
5.50711	0.824
5.54232	0.824
5.57754	0.821
5.61275	0.803
5.64796	0.796
5.68317	0.751
5.71838	0.676
5.75359	0.509
5.78881	0.07
5.82402	0.408
5.85923	0.683
5.89444	0.704
5.92965	0.709
5.96486	0.69
6.00008	0.628
6.03529	0.551
6.0705	0.341
6.10571	0.047
6.14092	0.182
6.17613	0.369
6.21135	0.46
6.24656	0.241
6.28177	0.131
6.31698	0.089
6.35219	0.22
6.3874	0.357
6.42262	0.52
6.45783	0.576
6.49304	0.605
6.52825	0.605
6.56346	0.609
6.59867	0.73
6.63389	0.733
6.6691	0.661
6.70431	0.747
6.73952	0.777
6.77473	0.712
6.80995	0.569
6.84516	0.598
6.88037	0.588
6.91558	0.688
6.95079	0.607
6.986	0.663
7.02122	0.791
7.05643	0.817
7.09164	0.823
7.12685	0.821
7.16206	0.795
7.19727	0.69
7.23249	0.754
7.2677	0.753
7.30291	0.563
7.33812	0.676
7.37333	0.781
7.40854	0.789
7.44376	0.772
7.47897	0.775
7.51418	0.753
7.54939	0.737
7.5846	0.661
7.61981	0.537
7.65503	0.455
7.69024	0.329
7.72545	0.336
7.76066	0.395
7.79587	0.446
7.83108	0.408
7.8663	0.371
7.90151	0.436
7.93672	0.525
7.97193	0.523
8.00714	0.467
8.04235	0.416
8.07757	0.411
8.11278	0.481
8.14799	0.588
8.1832	0.609
8.21841	0.607
8.25362	0.597
8.28884	0.593
8.32405	0.684
8.35926	0.711
8.39447	0.695
8.42968	0.73
8.4649	0.747
8.50011	0.758
8.53532	0.735
8.57053	0.772
8.60574	0.805
8.64095	0.828
8.67617	0.838
8.71138	0.833
8.74659	0.833
8.7818	0.847
8.81701	0.852
8.85222	0.828
8.88744	0.763
8.92265	0.824
8.95786	0.842
8.99307	0.845
9.02828	0.823
9.06349	0.751
9.09871	0.709
9.13392	0.754
9.16913	0.802
9.20434	0.821
9.23955	0.8
9.27476	0.77
9.30998	0.814
9.34519	0.828
9.3804	0.83
9.41561	0.807
9.45082	0.76
9.48603	0.711
9.52125	0.753
9.55646	0.791
9.59167	0.761
9.62688	0.653
9.66209	0.478
9.6973	0.478
9.73252	0.609
9.76773	0.676
9.80294	0.721
9.83815	0.756
9.87336	0.77
9.90858	0.823
9.94379	0.854
9.979	0.889
10.0142	0.905
10.0494	0.914
10.0846	0.922
10.1198	0.931
10.1551	0.94
10.1903	0.942
10.2255	0.943
10.2607	0.947
10.2959	0.947
10.3311	0.95
10.3663	0.943
10.4015	0.935
10.4368	0.924
10.472	0.931
10.5072	0.938
10.5424	0.933
10.5776	0.921
10.6128	0.901
10.648	0.905
10.6832	0.908
10.7184	0.893
10.7537	0.886
10.7889	0.845
10.8241	0.833
10.8593	0.831
10.8945	0.87
10.9297	0.907
10.9649	0.929
11.0001	0.945
11.0353	0.947
11.0706	0.957
11.1058	0.961
11.141	0.961
11.1762	0.968
11.2114	0.968
11.2466	0.97
11.2818	0.971
11.317	0.97
11.3523	0.968
11.3875	0.964
11.4227	0.959
11.4579	0.957
11.4931	0.947
11.5283	0.94
11.5635	0.91
11.5987	0.875
11.6339	0.863
11.6692	0.861
11.7044	0.907
11.7396	0.936
11.7748	0.943
11.81	0.957
11.8452	0.963
11.8804	0.966
11.9156	0.966
11.9509	0.963
11.9861	0.956
12.0213	0.961
12.0565	0.971
12.0917	0.97
12.1269	0.971
12.1621	0.975
12.1973	0.968
12.2325	0.964
12.2678	0.963
12.303	0.963
12.3382	0.963
12.3734	0.957
12.4086	0.936
12.4438	0.933
12.479	0.935
12.5142	0.935
12.5495	0.935
12.5847	0.935
12.6199	0.933
12.6551	0.936
12.6903	0.947
12.7255	0.945
12.7607	0.938
12.7959	0.915
12.8311	0.88
12.8664	0.875
12.9016	0.887
12.9368	0.903
12.972	0.907
13.0072	0.919
13.0424	0.915
13.0776	0.903
13.1128	0.894
13.1481	0.88
13.1833	0.838
13.2185	0.786
13.2537	0.726
13.2889	0.665
13.3241	0.637
13.3593	0.637
13.3945	0.684
13.4297	0.704
13.465	0.707
13.5002	0.709
13.5354	0.714
13.5706	0.721
13.6058	0.725
13.641	0.74
13.6762	0.746
13.7114	0.753
13.7467	0.76
13.7819	0.768
13.8171	0.795
13.8523	0.807
13.8875	0.816
13.9227	0.828
13.9579	0.835
13.9931	0.838
14.0283	0.833
14.0636	0.824
14.0988	0.816
14.134	0.798
14.1692	0.751
14.2044	0.669
14.2396	0.563
14.2748	0.481
14.31	0.53
14.3452	0.639
14.3805	0.702
14.4157	0.737
14.4509	0.751
14.4861	0.753
14.5213	0.749
14.5565	0.746
14.5917	0.744
14.6269	0.719
14.6622	0.712
14.6974	0.695
14.7326	0.688
14.7678	0.674
14.803	0.656
14.8382	0.642
14.8734	0.628
14.9086	0.618
14.9438	0.602
14.9791	0.584
15.0143	0.584
15.0495	0.581
15.0847	0.574
15.1199	0.57
15.1551	0.569
15.1903	0.567
15.2255	0.567
15.2608	0.567
15.296	0.565
15.3312	0.567
15.3664	0.569
15.4016	0.569
15.4368	0.574
15.472	0.579
15.5072	0.581
15.5424	0.581
15.5777	0.583
15.6129	0.586
15.6481	0.591
15.6833	0.591
15.7185	0.588
15.7537	0.588
15.7889	0.584
15.8241	0.577
15.8594	0.569
15.8946	0.56
15.9298	0.544
15.965	0.544
16.0002	0.544
