Infrared Spectrum: DICHLOROMETHYLENE BIS-(2,4,5-TRICHLOROBENZENE)
Formula: C13 H4 Cl8
CAS: 93186-50-6
State: SOLUTION (10% CCl4 FOR 5000-1330, 10% CS2 FOR 1330-625 CM^-^1)
Class: COBLENTZ
Instrument: Not specified, most likely a prism, grating, or hybrid spectrometer.
Sampling: TRANSMISSION
Path length: 0.0122 CM, 0.0122 CM
Resolution: 4
Origin: DOW CHEMICAL COMPANY
MICROMETERS	TRANSMITTANCE
2.014	0.897
2.05514	0.897
2.09627	0.899
2.13741	0.897
2.17854	0.897
2.21968	0.899
2.26081	0.894
2.30195	0.895
2.34308	0.897
2.38422	0.902
2.42536	0.904
2.46649	0.907
2.50763	0.907
2.54876	0.907
2.5899	0.905
2.63103	0.905
2.67217	0.907
2.7133	0.907
2.75444	0.9
2.79558	0.895
2.83671	0.89
2.87785	0.887
2.91898	0.888
2.96012	0.89
3.00125	0.894
3.04239	0.894
3.08352	0.892
3.12466	0.89
3.1658	0.868
3.20693	0.8
3.24807	0.842
3.2892	0.859
3.33034	0.859
3.37147	0.859
3.41261	0.87
3.45375	0.878
3.49488	0.88
3.53602	0.873
3.57715	0.861
3.61829	0.871
3.65942	0.87
3.70056	0.878
3.74169	0.892
3.78283	0.895
3.82397	0.9
3.8651	0.905
3.90624	0.912
3.94737	0.909
3.98851	0.907
4.02964	0.919
4.07078	0.914
4.11191	0.921
4.15305	0.921
4.19419	0.916
4.23532	0.917
4.27646	0.917
4.31759	0.917
4.35873	0.921
4.39986	0.933
4.441	0.945
4.48213	0.947
4.52327	0.952
4.56441	0.948
4.60554	0.945
4.64668	0.947
4.68781	0.947
4.72895	0.95
4.77008	0.952
4.81122	0.958
4.85235	0.955
4.89349	0.95
4.93463	0.955
4.97576	0.95
5.0169	0.947
5.05803	0.957
5.09917	0.957
5.1403	0.958
5.18144	0.96
5.22257	0.96
5.26371	0.958
5.30485	0.952
5.34598	0.952
5.38712	0.941
5.42825	0.943
5.46939	0.947
5.51052	0.95
5.55166	0.95
5.59279	0.943
5.63393	0.931
5.67507	0.894
5.7162	0.921
5.75734	0.931
5.79847	0.948
5.83961	0.943
5.88074	0.943
5.92188	0.945
5.96302	0.941
6.00415	0.933
6.04529	0.924
6.08642	0.921
6.12756	0.899
6.16869	0.864
6.20983	0.784
6.25096	0.668
6.2921	0.535
6.33324	0.492
6.37437	0.528
6.41551	0.461
6.45664	0.429
6.49778	0.452
6.53891	0.588
6.58005	0.664
6.62118	0.711
6.66232	0.733
6.70346	0.634
6.74459	0.716
6.78573	0.716
6.82686	0.466
6.868	0.094
6.90913	0.451
6.95027	0.711
6.9914	0.818
7.03254	0.875
7.07368	0.883
7.11481	0.885
7.15595	0.875
7.19708	0.875
7.23822	0.868
7.27935	0.844
7.32049	0.767
7.36162	0.699
7.40276	0.458
7.4439	0.239
7.48503	0.494
7.52617	0.664
7.5673	0.829
7.60844	0.895
7.64957	0.923
7.69071	0.929
7.73184	0.931
7.77298	0.943
7.81412	0.935
7.85525	0.914
7.89639	0.883
7.93752	0.835
7.97866	0.8
8.01979	0.866
8.06093	0.905
8.10206	0.911
8.1432	0.914
8.18434	0.849
8.22547	0.688
8.26661	0.499
8.30774	0.586
8.34888	0.752
8.39001	0.856
8.43115	0.827
8.47228	0.719
8.51342	0.747
8.55456	0.851
8.59569	0.859
8.63683	0.808
8.67796	0.625
8.7191	0.483
8.76023	0.635
8.80137	0.8
8.84251	0.863
8.88364	0.9
8.92478	0.921
8.96591	0.933
9.00705	0.936
9.04818	0.919
9.08932	0.9
9.13045	0.871
9.17159	0.83
9.21273	0.709
9.25386	0.417
9.295	0.123
9.33613	0.362
9.37727	0.741
9.4184	0.868
9.45954	0.897
9.50067	0.914
9.54181	0.924
9.58295	0.929
9.62408	0.933
9.66522	0.936
9.70635	0.94
9.74749	0.948
9.78862	0.952
9.82976	0.952
9.87089	0.948
9.91203	0.95
9.95317	0.958
9.9943	0.962
10.0354	0.965
10.0766	0.965
10.1177	0.96
10.1588	0.941
10.2	0.916
10.2411	0.882
10.2823	0.777
10.3234	0.598
10.3645	0.63
10.4057	0.8
10.4468	0.866
10.4879	0.897
10.5291	0.911
10.5702	0.916
10.6113	0.911
10.6525	0.894
10.6936	0.883
10.7347	0.87
10.7759	0.837
10.817	0.741
10.8581	0.581
10.8993	0.473
10.9404	0.617
10.9816	0.813
11.0227	0.876
11.0638	0.882
11.105	0.864
11.1461	0.805
11.1872	0.588
11.2284	0.377
11.2695	0.201
11.3106	0.317
11.3518	0.581
11.3929	0.692
11.434	0.702
11.4752	0.611
11.5163	0.502
11.5575	0.487
11.5986	0.605
11.6397	0.664
11.6809	0.692
11.722	0.712
11.7631	0.747
11.8043	0.782
11.8454	0.813
11.8865	0.842
11.9277	0.864
11.9688	0.871
12.0099	0.873
12.0511	0.868
12.0922	0.863
12.1334	0.863
12.1745	0.863
12.2156	0.841
12.2568	0.803
12.2979	0.743
12.339	0.622
12.3802	0.456
12.4213	0.333
12.4624	0.312
12.5036	0.254
12.5447	0.179
12.5858	0.176
12.627	0.3
12.6681	0.389
12.7092	0.42
12.7504	0.418
12.7915	0.512
12.8327	0.647
12.8738	0.745
12.9149	0.801
12.9561	0.832
12.9972	0.854
13.0383	0.864
13.0795	0.871
13.1206	0.871
13.1617	0.868
13.2029	0.863
13.244	0.861
13.2851	0.864
13.3263	0.871
13.3674	0.873
13.4086	0.875
13.4497	0.873
13.4908	0.871
13.532	0.866
13.5731	0.863
13.6142	0.858
13.6554	0.854
13.6965	0.849
13.7376	0.846
13.7788	0.841
13.8199	0.835
13.861	0.83
13.9022	0.823
13.9433	0.818
13.9845	0.808
14.0256	0.8
14.0667	0.789
14.1079	0.779
14.149	0.77
14.1901	0.757
14.2313	0.726
14.2724	0.687
14.3135	0.668
14.3547	0.659
14.3958	0.651
14.4369	0.634
14.4781	0.622
14.5192	0.596
14.5603	0.521
14.6015	0.432
14.6426	0.388
14.6838	0.415
14.7249	0.483
14.766	0.528
14.8072	0.552
14.8483	0.565
14.8894	0.574
14.9306	0.581
14.9717	0.6
15.0128	0.603
15.054	0.593
15.0951	0.584
15.1362	0.574
15.1774	0.562
15.2185	0.553
15.2597	0.547
15.3008	0.54
15.3419	0.531
15.3831	0.526
15.4242	0.519
15.4653	0.512
15.5065	0.507
15.5476	0.502
15.5887	0.497
15.6299	0.49
15.671	0.482
15.7121	0.476
15.7533	0.47
15.7944	0.466
15.8356	0.458
15.8767	0.461
