Infrared Spectrum: N-Acetyl-2-Pyrrolidone
Formula: C 6 H 9 N O 2
CAS: 932-17-2
State: gas
Instrument: HP-GC/MS/IRD
Origin: NIST Mass Spectrometry Data Center
1/CM	ABSORBANCE
550	0.0002793
562	0.0003332
574	0.0032095
586	0.0059388
598	0.0050911
610	0.0029008
622	0.001519
634	0.0012397
646	0.0010682
658	0.0007154
670	0.0004361
682	0.0003528
694	0.000294
706	0.0001764
718	9.8e-05
730	0
742	5.88e-05
754	7.84e-05
766	9.31e-05
778	0.0002303
790	0.0002499
802	0.0003185
814	0.0005096
826	0.0009849
838	0.0015239
850	0.0013769
862	0.0008281
874	0.0008673
886	0.00098
898	0.0008771
910	0.001078
922	0.001813
934	0.001666
946	0.0008281
958	0.0012201
970	0.0016954
982	0.0016807
994	0.0015092
1006	0.0023226
1018	0.0033761
1030	0.0027293
1042	0.0015337
1054	0.0012593
1066	0.0012005
1078	0.0011172
1090	0.0010339
1102	0.0014014
1114	0.002352
1126	0.0031654
1138	0.0029155
1150	0.0024892
1162	0.0035231
1174	0.0054978
1186	0.0080752
1198	0.0086338
1210	0.0087759
1222	0.0121275
1234	0.0149303
1246	0.0179879
1258	0.0267785
1270	0.0405426
1282	0.049
1294	0.0368725
1306	0.0172774
1318	0.0085064
1330	0.0062132
1342	0.0072373
1354	0.0160475
1366	0.0228487
1378	0.0204428
1390	0.013034
1402	0.0053312
1414	0.0038465
1426	0.0036603
1438	0.0028616
1450	0.0020482
1462	0.0021952
1474	0.0021021
1486	0.0018473
1498	0.0015533
1510	0.0009212
1522	0.0007399
1534	0.0007056
1546	0.0007154
1558	0.0007889
1570	0.0008575
1582	0.0008722
1594	0.0008575
1606	0.0008428
1618	0.0009702
1630	0.0012593
1642	0.001568
1654	0.0018571
1666	0.0020874
1678	0.0027587
1690	0.0044541
1702	0.0120344
1714	0.0346332
1726	0.0406063
1738	0.0279888
1750	0.0421498
1762	0.0448203
1774	0.0189042
1786	0.0051156
1798	0.0025284
1810	0.0017444
1822	0.0013965
1834	0.0010388
1846	0.000784
1858	0.0006664
1870	0.0006517
1882	0.0005929
1894	0.000588
1906	0.0005047
1918	0.0004116
1930	0.0004116
1942	0.0004753
1954	0.000539
1966	0.0005292
1978	0.0005292
1990	0.0004214
2002	0.0003381
2014	0.0002793
2026	0.0002009
2038	0.0002107
2050	0.0001666
2062	0.000196
2074	0.000245
2086	0.0002597
2098	0.0002352
2110	0.0001715
2122	0.0001078
2134	8.33e-05
2146	5.39e-05
2158	5.88e-05
2170	9.31e-05
2182	5.88e-05
2194	9.8e-05
2206	0.0001225
2218	0.0001078
2230	0.0001323
2242	0.0001862
2254	0.0001911
2266	0.0001764
2278	0.0001421
2290	0.0001176
2302	0.0001029
2314	0.0001078
2326	0.0001372
2338	0.0001813
2350	0.0001666
2362	0.0001813
2374	0.0001323
2386	9.8e-05
2398	0.0001078
2410	0.0001176
2422	0.0001127
2434	0.0001225
2446	8.33e-05
2458	0.0001225
2470	0.0001225
2482	0.0001078
2494	9.31e-05
2506	0.0001029
2518	8.82e-05
2530	9.8e-05
2542	0.0001176
2554	0.0001176
2566	0.0001127
2578	4.9e-05
2590	4.9e-05
2602	6.37e-05
2614	2.45e-05
2626	6.37e-05
2638	4.9e-06
2650	4.41e-05
2662	7.35e-05
2674	7.35e-05
2686	9.8e-05
2698	9.8e-05
2710	9.31e-05
2722	0.0001127
2734	8.33e-05
2746	4.41e-05
2758	3.92e-05
2770	9.31e-05
2782	8.82e-05
2794	0.0001274
2806	0.0001715
2818	0.0002156
2830	0.0003626
2842	0.0004949
2854	0.0005733
2866	0.0006517
2878	0.0011123
2890	0.002352
2902	0.0037828
2914	0.0035868
2926	0.0025382
2938	0.002499
2950	0.0032144
2962	0.0039788
2974	0.0050568
2986	0.0062818
2998	0.0051254
3010	0.0027685
3022	0.0014896
3034	0.0008869
3046	0.0004998
3058	0.0003577
3070	0.0003038
3082	0.0002597
3094	0.0002499
3106	0.0001813
3118	0.0001568
3130	0.0001323
3142	0.0001372
3154	9.8e-05
3166	0.0001372
3178	7.84e-05
3190	7.84e-05
3202	0.0001372
3214	0.0001421
3226	7.35e-05
3238	8.82e-05
3250	6.86e-05
3262	8.82e-05
3274	4.9e-05
3286	3.92e-05
3298	5.39e-05
3310	4.9e-05
3322	6.86e-05
3334	0.0001176
3346	0.0001127
3358	0.0001176
3370	8.33e-05
3382	0.0001421
3394	0.0001666
3406	0.0003773
3418	0.0006125
3430	0.0006321
3442	0.0003479
3454	0.0002401
3466	0.0002646
3478	0.0003577
3490	0.0005439
3502	0.0006125
3514	0.00049
3526	0.000245
3538	0.0002156
3550	0.0001372
3562	0.0001519
3574	5.88e-05
3586	8.82e-05
3598	6.37e-05
3610	0.0001617
3622	0.0001127
3634	0.0001078
3646	8.33e-05
3658	0.0001176
3670	0.0001372
3682	0.0001372
3694	9.31e-05
3706	6.86e-05
3718	0.0001029
3730	0.0001715
3742	0.0001372
3754	0.0001323
3766	7.35e-05
3778	9.8e-05
3790	0.0001372
3802	0.0001568
3814	0.0001862
3826	0.0002058
3838	0.0001862
