Infrared Spectrum: 1-Cyclohexenyl ethanone
Formula: C 8 H 12 O
CAS: 932-66-1
State: gas
Instrument: HP-GC/MS/IRD
Origin: NIST Mass Spectrometry Data Center
1/CM	ABSORBANCE
550	0.0003045
562	0.0001617
574	0.0004725
586	0.0011109
598	0.0016758
610	0.002835
622	0.002646
634	0.0007812
646	0.0001932
658	0.0001239
670	0.0001008
682	1.47e-05
694	5.04e-05
706	7.77e-05
718	7.77e-05
730	0.000105
742	0.0001806
754	0.0001533
766	0.0001764
778	0.0003276
790	0.0007014
802	0.0006363
814	0.0004704
826	0.0006342
838	0.0010332
850	0.0009198
862	0.000462
874	0.0004725
886	0.0010059
898	0.0016044
910	0.0014574
922	0.0011676
934	0.0009744
946	0.000798
958	0.0012054
970	0.0016653
982	0.001134
994	0.0006762
1006	0.0006153
1018	0.0007602
1030	0.0008169
1042	0.0006489
1054	0.0007434
1066	0.0011571
1078	0.0013377
1090	0.0009261
1102	0.0005103
1114	0.0004137
1126	0.000609
1138	0.0009282
1150	0.0008169
1162	0.0007728
1174	0.0009177
1186	0.0010752
1198	0.0016044
1210	0.0041307
1222	0.0116172
1234	0.0158634
1246	0.0084525
1258	0.0034251
1270	0.0040782
1282	0.0031101
1294	0.0013104
1306	0.0009828
1318	0.0008631
1330	0.0013587
1342	0.0028602
1354	0.0041517
1366	0.0044604
1378	0.0048195
1390	0.0036099
1402	0.0016632
1414	0.0015708
1426	0.0024864
1438	0.0034209
1450	0.003108
1462	0.0019908
1474	0.0011592
1486	0.0007182
1498	0.0005397
1510	0.0005124
1522	0.0004557
1534	0.0004662
1546	0.0004704
1558	0.0005229
1570	0.0004662
1582	0.0004935
1594	0.0006699
1606	0.0009975
1618	0.0023562
1630	0.0045486
1642	0.004998
1654	0.0035343
1666	0.0054033
1678	0.0152145
1690	0.0207543
1702	0.0135807
1714	0.0052836
1726	0.0019908
1738	0.0013881
1750	0.0009597
1762	0.0005229
1774	0.0003213
1786	0.0002478
1798	0.0002079
1810	0.0001869
1822	0.0001659
1834	0.0001869
1846	0.0002499
1858	0.0002268
1870	0.000147
1882	0.0001071
1894	0.0001071
1906	0.0001155
1918	0.0001113
1930	9.03e-05
1942	6.93e-05
1954	6.72e-05
1966	8.61e-05
1978	9.03e-05
1990	5.25e-05
2002	2.94e-05
2014	2.52e-05
2026	5.04e-05
2038	2.73e-05
2050	2.52e-05
2062	2.1e-05
2074	3.36e-05
2086	2.1e-06
2098	4.2e-05
2110	1.89e-05
2122	1.89e-05
2134	5.04e-05
2146	1.47e-05
2158	8.4e-06
2170	3.99e-05
2182	6.09e-05
2194	5.88e-05
2206	6.3e-05
2218	5.46e-05
2230	6.09e-05
2242	5.88e-05
2254	5.46e-05
2266	8.19e-05
2278	5.67e-05
2290	1.89e-05
2302	4.83e-05
2314	6.72e-05
2326	8.19e-05
2338	8.4e-05
2350	4.62e-05
2362	8.82e-05
2374	5.88e-05
2386	3.57e-05
2398	3.57e-05
2410	6.72e-05
2422	5.25e-05
2434	7.14e-05
2446	5.67e-05
2458	4.2e-05
2470	5.25e-05
2482	5.46e-05
2494	5.25e-05
2506	5.46e-05
2518	5.46e-05
2530	6.09e-05
2542	4.83e-05
2554	3.99e-05
2566	7.56e-05
2578	9.66e-05
2590	0.0001029
2602	9.24e-05
2614	0.0001029
2626	0.0001092
2638	0.0001806
2650	0.0002331
2662	0.0003213
2674	0.0003192
2686	0.0002793
2698	0.0002352
2710	0.0001617
2722	0.0001491
2734	0.0001785
2746	0.0001827
2758	0.0002331
2770	0.0002772
2782	0.0003717
2794	0.0004851
2806	0.0005964
2818	0.0009009
2830	0.0018123
2842	0.0032004
2854	0.0042021
2866	0.00588
2878	0.0061341
2890	0.005355
2902	0.0054327
2914	0.0079632
2926	0.012264
2938	0.0191877
2950	0.0195909
2962	0.0091308
2974	0.002709
2986	0.0018018
2998	0.0017283
3010	0.0018585
3022	0.0017178
3034	0.0016821
3046	0.0019761
3058	0.001575
3070	0.0008568
3082	0.0005817
3094	0.0005082
3106	0.0004284
3118	0.0003864
3130	0.0002751
3142	0.0002289
3154	0.0001743
3166	0.0001596
3178	0.0001218
3190	0.0001533
3202	0.0001596
3214	0.0001575
3226	0.0001386
3238	0.0001428
3250	0.0001365
3262	0.0001029
3274	0.0001953
3286	0.0001533
3298	0.0002079
3310	0.0001407
3322	0.0001869
3334	0.0002478
3346	0.0004263
3358	0.0004851
3370	0.0003822
3382	0.0002877
3394	0.0002583
3406	0.0001974
3418	0.0001365
3430	0.0001155
3442	7.14e-05
3454	0.000126
3466	0.0001155
3478	8.19e-05
3490	0.0001218
3502	0.0001008
3514	8.4e-05
3526	0.0001071
3538	0.0001029
3550	7.56e-05
3562	8.82e-05
3574	6.3e-05
3586	3.57e-05
3598	5.25e-05
3610	7.77e-05
3622	5.88e-05
3634	9.45e-05
3646	9.24e-05
3658	0.0001092
3670	0.0001449
3682	0.0001176
3694	0.0001365
3706	0.0001281
3718	0.0001323
3730	0.0001071
3742	0.0001239
3754	9.66e-05
3766	0.0001386
3778	0.0001533
3790	0.0001659
3802	0.0001911
3814	0.0001491
3826	0.0001512
3838	0.0001449
