Infrared Spectrum: 5-Aminouracil
Formula: C4 H5 N3 O2
CAS: 932-52-5
State: SOLID (SPLIT MULL)
Class: COBLENTZ II
Instrument: BECKMAN IR-9 (GRATING)
Instrument parameters: ORDER CHANGES: 670, 1200, 2000 CM^-^1
Sampling: TRANSMISSION
Resolution: 2
Origin: DOW CHEMICAL COMPANY
1/CM	TRANSMITTANCE
3794	0.7189
3785	0.7201
3776	0.7215
3767	0.7226
3758	0.7236
3749	0.7242
3740	0.7262
3731	0.729
3722	0.7317
3713	0.7344
3704	0.7365
3695	0.738
3686	0.7395
3677	0.7398
3668	0.74
3659	0.7401
3650	0.74
3641	0.7396
3632	0.7394
3623	0.739
3614	0.7387
3605	0.7382
3596	0.7378
3587	0.7375
3578	0.7371
3569	0.7368
3560	0.7368
3551	0.7368
3542	0.7367
3533	0.7369
3524	0.7375
3515	0.7381
3506	0.7387
3497	0.7392
3488	0.7393
3479	0.7394
3470	0.7394
3461	0.7394
3452	0.7391
3443	0.7362
3434	0.7317
3425	0.7217
3416	0.6872
3407	0.5627
3398	0.5588
3389	0.5665
3380	0.5055
3371	0.456
3362	0.5436
3353	0.6289
3344	0.635
3335	0.624
3326	0.6003
3317	0.559
3308	0.4918
3299	0.4921
3290	0.5041
3281	0.5164
3272	0.5231
3263	0.525
3254	0.5201
3245	0.497
3236	0.4576
3227	0.4195
3218	0.3839
3209	0.348
3200	0.3268
3191	0.3181
3182	0.3129
3173	0.3111
3164	0.3117
3155	0.3126
3146	0.3146
3137	0.3176
3128	0.3232
3119	0.3253
3110	0.3175
3101	0.2924
3092	0.238
3083	0.2562
3074	0.2721
3065	0.2684
3056	0.2572
3047	0.2419
3038	0.2272
3029	0.2196
3020	0.2213
3011	0.2269
3002	0.2322
2993	0.2355
2984	0.2434
2975	0.2555
2966	0.2668
2957	0.2767
2948	0.2828
2939	0.2868
2930	0.2898
2921	0.2924
2912	0.2958
2903	0.2955
2894	0.2895
2885	0.2887
2876	0.2981
2867	0.318
2858	0.3452
2849	0.3706
2840	0.3959
2831	0.4123
2822	0.4003
2813	0.3357
2804	0.336
2795	0.3795
2786	0.4337
2777	0.479
2768	0.5084
2759	0.5305
2750	0.5469
2741	0.5598
2732	0.5709
2723	0.58
2714	0.5887
2705	0.5955
2696	0.6041
2687	0.6127
2678	0.6226
2669	0.6334
2660	0.6467
2651	0.6601
2642	0.6697
2633	0.6791
2624	0.6883
2615	0.6975
2606	0.7058
2597	0.7125
2588	0.7189
2579	0.7246
2570	0.7304
2561	0.7345
2552	0.7387
2543	0.7434
2534	0.7481
2525	0.7508
2516	0.7533
2507	0.7554
2498	0.7567
2489	0.7578
2480	0.7592
2471	0.7603
2462	0.759
2453	0.754
2444	0.7504
2435	0.7485
2426	0.7474
2417	0.7604
2408	0.7654
2399	0.7722
2390	0.7785
2381	0.7821
2372	0.7833
2363	0.7882
2354	0.7912
2345	0.7941
2336	0.7974
2327	0.8006
2318	0.8036
2309	0.8061
2300	0.8088
2291	0.8125
2282	0.8165
2273	0.8187
2264	0.821
2255	0.8234
2246	0.8259
2237	0.8285
2228	0.8315
2219	0.8344
2210	0.8374
2201	0.8402
2192	0.843
2183	0.8455
2174	0.8481
2165	0.8508
2156	0.8538
2147	0.8567
2138	0.8596
2129	0.8625
2120	0.8653
2111	0.8681
2102	0.8709
2093	0.8736
2084	0.8756
2075	0.8771
2066	0.879
2057	0.8802
2048	0.8803
2039	0.8784
2030	0.8747
2021	0.875
2012	0.8825
2003	0.8853
1994	0.8821
1985	0.888
1976	0.889
1967	0.8851
1958	0.8796
1949	0.883
1940	0.8925
1931	0.9023
1922	0.9064
1913	0.9025
1904	0.8984
1895	0.8973
1886	0.9006
1877	0.9001
1868	0.8987
1859	0.8951
1850	0.89
1841	0.8813
1832	0.869
1823	0.8539
1814	0.8265
1805	0.7504
1796	0.5908
1787	0.5512
1778	0.4486
1769	0.2296
1760	0.1435
1751	0.0621
1742	0.0613
1733	0.1096
1724	0.2067
1715	0.2498
1706	0.3291
1697	0.2547
1688	0.1217
1679	0.0765
1670	0.076
1661	0.0624
1652	0.13
1643	0.2656
1634	0.3871
1625	0.4591
1616	0.5069
1607	0.4916
1598	0.4142
1589	0.3309
1580	0.356
1571	0.4277
1562	0.5231
1553	0.5712
1544	0.601
1535	0.6265
1526	0.6491
1517	0.6567
1508	0.6426
1499	0.6458
1490	0.6792
1481	0.7156
1472	0.7189
1463	0.494
1454	0.4844
1445	0.6443
1436	0.6646
1427	0.494
1418	0.6598
1409	0.7203
1400	0.7592
1391	0.8003
1382	0.8261
1373	0.8362
1364	0.8408
1355	0.8384
1346	0.8201
1337	0.8206
1328	0.8263
1319	0.8175
1310	0.7998
1301	0.7761
1292	0.699
1283	0.5668
1274	0.5329
1265	0.6958
1256	0.7015
1247	0.3571
1238	0.5084
1229	0.7034
1220	0.7289
1211	0.627
1202	0.7185
1193	0.7924
1184	0.8171
1175	0.8273
1166	0.8312
1157	0.8335
1148	0.837
1139	0.845
1130	0.8463
1121	0.8424
1112	0.8308
1103	0.8128
1094	0.8252
1085	0.8318
1076	0.8341
1067	0.8356
1058	0.8371
1049	0.8375
1040	0.835
1031	0.8325
1022	0.8155
1013	0.8024
1004	0.8284
995	0.8314
986	0.8303
977	0.8267
968	0.8225
959	0.8172
950	0.81
941	0.8005
932	0.7887
923	0.7742
914	0.7554
905	0.725
896	0.6745
887	0.5892
878	0.4662
869	0.6136
860	0.5916
851	0.5683
842	0.566
833	0.5467
824	0.5108
815	0.4336
806	0.3953
797	0.412
788	0.4648
779	0.5631
770	0.4599
761	0.3874
752	0.453
743	0.5848
734	0.6287
725	0.6464
716	0.688
707	0.7193
698	0.743
689	0.7651
680	0.7824
671	0.7976
662	0.8098
653	0.8181
644	0.8237
635	0.8286
626	0.8328
617	0.8351
608	0.8362
599	0.835
590	0.8324
581	0.8258
572	0.7998
563	0.6574
554	0.6037
545	0.7903
536	0.7878
527	0.7867
518	0.7838
509	0.7693
500	0.7367
491	0.5703
482	0.4852
473	0.7495
464	0.7348
455	0.6808
446	0.5154
437	0.5068
428	0.619
419	0.6319
410	0.6506
401	0.6748
