Infrared Spectrum: 6-Azathymine
Formula: C 4 H 5 N 3 O 2
CAS: 932-53-6
State: gas
Instrument: HP-GC/MS/IRD
Origin: NIST Mass Spectrometry Data Center
1/CM	ABSORBANCE
550	0.0023498
562	0.004712
574	0.00465
586	0.003069
598	0.0017236
610	0.0009424
622	0.0011966
634	0.0026288
646	0.0056792
658	0.0089342
670	0.006882
682	0.0054746
694	0.0036952
706	0.0020026
718	0.0009734
730	0.001674
742	0.003937
754	0.0034224
766	0.0040424
778	0.0024614
790	0.001457
802	0.0007874
814	0.0003844
826	0.0001736
838	8.68e-05
850	3.1e-05
862	3.1e-05
874	8.06e-05
886	0.0001488
898	0.0001302
910	0.0001178
922	0.0003162
934	0.0009672
946	0.001457
958	0.0014012
970	0.0013082
982	0.0015004
994	0.0021452
1006	0.0025668
1018	0.0015376
1030	0.000403
1042	0.0001426
1054	0.0001922
1066	0.0002728
1078	0.0005084
1090	0.0010974
1102	0.001953
1114	0.0027156
1126	0.002945
1138	0.002945
1150	0.0027652
1162	0.0022692
1174	0.0026102
1186	0.005859
1198	0.0108066
1210	0.009021
1222	0.001984
1234	0.0012772
1246	0.0021142
1258	0.0044268
1270	0.0057412
1282	0.0049538
1294	0.0026164
1306	0.0014198
1318	0.0009982
1330	0.0009672
1342	0.0012276
1354	0.0019344
1366	0.0031186
1378	0.0053816
1390	0.0060636
1402	0.0049104
1414	0.0048174
1426	0.0046252
1438	0.0056048
1450	0.0047802
1462	0.002108
1474	0.000992
1486	0.0009734
1498	0.0007812
1510	0.000496
1522	0.0005952
1534	0.000651
1546	0.0005704
1558	0.0004836
1570	0.0005208
1582	0.000651
1594	0.0009982
1606	0.0016244
1618	0.0016802
1630	0.0012524
1642	0.0012462
1654	0.001643
1666	0.0022878
1678	0.0031434
1690	0.0048422
1702	0.008153
1714	0.0184822
1726	0.0435116
1738	0.0582056
1750	0.054064
1762	0.0609894
1774	0.054312
1786	0.0220906
1798	0.0136276
1810	0.0117118
1822	0.0072354
1834	0.0033294
1846	0.0016554
1858	0.0012276
1870	0.0011408
1882	0.0010912
1894	0.0009734
1906	0.0007502
1918	0.000558
1930	0.000465
1942	0.0004526
1954	0.000372
1966	0.000248
1978	0.0001612
1990	0.0001178
2002	0.0001054
2014	0.0001116
2026	9.92e-05
2038	8.68e-05
2050	0.0001178
2062	0.0001488
2074	0.0001426
2086	7.44e-05
2098	3.1e-05
2110	3.72e-05
2122	4.34e-05
2134	1.86e-05
2146	1.24e-05
2158	1.86e-05
2170	6.2e-06
2182	0
2194	1.24e-05
2206	3.72e-05
2218	3.72e-05
2230	3.72e-05
2242	3.1e-05
2254	3.72e-05
2266	3.1e-05
2278	2.48e-05
2290	3.1e-05
2302	1.24e-05
2314	1.24e-05
2326	0
2338	6.2e-06
2350	1.24e-05
2362	3.1e-05
2374	4.96e-05
2386	3.72e-05
2398	5.58e-05
2410	6.82e-05
2422	8.06e-05
2434	8.06e-05
2446	8.06e-05
2458	5.58e-05
2470	5.58e-05
2482	3.72e-05
2494	4.96e-05
2506	8.68e-05
2518	0.0001054
2530	0.0001736
2542	0.0001674
2554	0.0001426
2566	0.0001054
2578	6.2e-05
2590	1.86e-05
2602	6.2e-06
2614	1.24e-05
2626	6.2e-06
2638	6.2e-05
2650	8.68e-05
2662	0.0001054
2674	0.0001178
2686	9.92e-05
2698	0.0001116
2710	0.0001674
2722	0.000155
2734	0.000155
2746	0.0001302
2758	0.0001054
2770	0.0001054
2782	8.68e-05
2794	0.0001178
2806	0.0001364
2818	0.0002046
2830	0.0002046
2842	0.0002232
2854	0.0002666
2866	0.0003286
2878	0.0003534
2890	0.00031
2902	0.0002666
2914	0.0002542
2926	0.000403
2938	0.000806
2950	0.0007688
2962	0.0004464
2974	0.0005704
2986	0.0004216
2998	0.0003596
3010	0.0003658
3022	0.0003286
3034	0.0001798
3046	0.0001488
3058	0.0001488
3070	0.0002108
3082	0.0002914
3094	0.0002418
3106	0.0002666
3118	0.0002356
3130	0.0002356
3142	0.000186
3154	0.0001798
3166	0.0002232
3178	0.0002046
3190	0.0002232
3202	0.000248
3214	0.0002232
3226	0.0001736
3238	0.000155
3250	0.000155
3262	0.0001178
3274	0.0001116
3286	0.0001178
3298	0.000155
3310	0.0001054
3322	0.0001364
3334	0.0001798
3346	0.0001984
3358	0.0002232
3370	0.0002666
3382	0.0003224
3394	0.0006758
3406	0.0020088
3418	0.0054808
3430	0.0072788
3442	0.005518
3454	0.0034782
3466	0.0067642
3478	0.0103168
3490	0.0081034
3502	0.0026722
3514	0.0010044
3526	0.000744
3538	0.000558
3550	0.0003658
3562	0.000279
3574	0.0001488
3586	9.92e-05
3598	0.0001364
3610	0.0001116
3622	8.68e-05
3634	0.000124
3646	6.82e-05
3658	4.34e-05
3670	4.96e-05
3682	2.48e-05
3694	1.24e-05
3706	7.44e-05
3718	0
3730	1.24e-05
3742	2.48e-05
3754	1.24e-05
3766	6.82e-05
3778	6.82e-05
3790	4.34e-05
3802	3.72e-05
3814	2.48e-05
3826	1.86e-05
3838	4.96e-05
