Infrared Spectrum: 3-Bromobenzylchloride
Formula: C 7 H 6 Br Cl
CAS: 932-77-4
State: gas
Origin: EPA-IR VAPOR PHASE LIBRARY
1/CM	ABSORBANCE
551.7	0.00275
563.274	0.00688
574.848	0.01663
586.421	0.00604
597.995	0.00329
609.569	0.00305
621.143	0.00316
632.717	0.00338
644.291	0.0049
655.864	0.01224
667.438	0.0278
679.012	0.02668
690.586	0.02251
702.16	0.02532
713.734	0.04948
725.307	0.06026
736.881	0.0428
748.455	0.02394
760.029	0.01857
771.603	0.02086
783.177	0.02102
794.75	0.01019
806.324	0.00414
817.898	0.00343
829.472	0.00511
841.046	0.01204
852.619	0.01667
864.193	0.01074
875.767	0.0078
887.341	0.00728
898.915	0.00597
910.489	0.00516
922.062	0.00443
933.636	0.00359
945.21	0.00292
956.784	0.00238
968.358	0.00205
979.932	0.00246
991.505	0.00503
1003.08	0.00669
1014.65	0.00337
1026.23	0.00211
1037.8	0.00214
1049.37	0.00365
1060.95	0.01254
1072.52	0.02483
1084.1	0.0148
1095.67	0.00672
1107.24	0.00371
1118.82	0.003
1130.39	0.0029
1141.97	0.00294
1153.54	0.00284
1165.11	0.00389
1176.69	0.00621
1188.26	0.01008
1199.83	0.01852
1211.41	0.01649
1222.98	0.00813
1234.56	0.00755
1246.13	0.01258
1257.7	0.02662
1269.28	0.03702
1280.85	0.0234
1292.42	0.01115
1304	0.00641
1315.57	0.00393
1327.15	0.00293
1338.72	0.00248
1350.29	0.00234
1361.87	0.0027
1373.44	0.00369
1385.02	0.00606
1396.59	0.00761
1408.16	0.01041
1419.74	0.02096
1431.31	0.02289
1442.88	0.01344
1454.46	0.01223
1466.03	0.01653
1477.61	0.02958
1489.18	0.0136
1500.75	0.00407
1512.33	0.00323
1523.9	0.00316
1535.48	0.00378
1547.05	0.00669
1558.62	0.01772
1570.2	0.03749
1581.77	0.03123
1593.34	0.02402
1604.92	0.01305
1616.49	0.00391
1628.07	0.00241
1639.64	0.00225
1651.21	0.00224
1662.79	0.00237
1674.36	0.00279
1685.93	0.00285
1697.51	0.00237
1709.08	0.00189
1720.66	0.00195
1732.23	0.00236
1743.8	0.0029
1755.38	0.00315
1766.95	0.00281
1778.53	0.00256
1790.1	0.00259
1801.67	0.00242
1813.25	0.0021
1824.82	0.00202
1836.39	0.00201
1847.97	0.00235
1859.54	0.0033
1871.12	0.00284
1882.69	0.00182
1894.26	0.00145
1905.84	0.00143
1917.41	0.00193
1928.99	0.00279
1940.56	0.00254
1952.13	0.00151
1963.71	0.00121
1975.28	0.00112
1986.85	0.00106
1998.43	0.00106
2010	0.0009999
2021.58	0.0009586
2033.15	0.00101
2044.72	0.00106
2056.3	0.00111
2067.87	0.00106
2079.44	0.0009604
2091.02	0.0008645
2102.59	0.0008177
2114.17	0.0007746
2125.74	0.0007576
2137.31	0.0007595
2148.89	0.0007743
2160.46	0.000784
2172.04	0.0008276
2183.61	0.0008068
2195.18	0.0007791
2206.76	0.0007493
2218.33	0.0007233
2229.9	0.0007733
2241.48	0.0007897
2253.05	0.0007691
2264.63	0.0007917
2276.2	0.0008311
2287.77	0.0008763
2299.35	0.0009165
2310.92	0.0009312
2322.5	0.000993
2334.07	0.0012
2345.64	0.00128
2357.22	0.0012
2368.79	0.00115
2380.36	0.0011
2391.94	0.0009641
2403.51	0.0009483
2415.09	0.0009247
2426.66	0.0008617
2438.23	0.0008172
2449.81	0.0007986
2461.38	0.0008381
2472.96	0.0008407
2484.53	0.0008086
2496.1	0.0008337
2507.68	0.0008189
2519.25	0.0008044
2530.82	0.0008117
2542.4	0.0008595
2553.97	0.000858
2565.55	0.0008803
2577.12	0.0008284
2588.69	0.0008567
2600.27	0.0008153
2611.84	0.00075
2623.41	0.0008258
2634.99	0.0008825
2646.56	0.0009239
2658.14	0.0009345
2669.71	0.0008925
2681.28	0.0007986
2692.86	0.0009022
2704.43	0.00103
2716.01	0.00118
2727.58	0.00109
2739.15	0.0008997
2750.73	0.0008071
2762.3	0.0008368
2773.87	0.0009368
2785.45	0.0009758
2797.02	0.0009728
2808.6	0.0009094
2820.17	0.0009623
2831.74	0.00111
2843.32	0.00141
2854.89	0.00155
2866.47	0.00175
2878.04	0.00223
2889.61	0.00212
2901.19	0.00166
2912.76	0.00147
2924.33	0.00197
2935.91	0.0035
2947.48	0.0051
2959.06	0.00749
2970.63	0.00991
2982.2	0.00687
2993.78	0.00525
3005.35	0.00584
3016.92	0.00571
3028.5	0.0056
3040.07	0.00557
3051.65	0.00689
3063.22	0.01067
3074.79	0.0128
3086.37	0.00948
3097.94	0.00556
3109.52	0.00222
3121.09	0.00124
3132.66	0.00106
3144.24	0.00101
3155.81	0.000986
3167.38	0.0008348
3178.96	0.0008402
3190.53	0.000825
3202.11	0.0007573
3213.68	0.0006873
3225.25	0.0006677
3236.83	0.0006713
3248.4	0.0006536
3259.98	0.0006992
3271.55	0.0006109
3283.12	0.0006916
3294.7	0.0006704
3306.27	0.0007182
3317.84	0.0006364
3329.42	0.0006961
3340.99	0.000761
3352.57	0.0007357
3364.14	0.0007315
3375.71	0.0007428
3387.29	0.0007863
3398.86	0.0007504
3410.43	0.0006673
3422.01	0.0007443
3433.58	0.0007081
3445.16	0.000706
3456.73	0.0007651
3468.3	0.000826
3479.88	0.0008176
3491.45	0.0008161
3503.03	0.0008781
3514.6	0.0007609
3526.17	0.0007434
3537.75	0.0007261
3549.32	0.0007945
3560.89	0.000768
3572.47	0.0007166
3584.04	0.0007624
3595.62	0.0007557
3607.19	0.0008391
3618.76	0.0008417
3630.34	0.0008226
3641.91	0.0008791
3653.49	0.0007906
3665.06	0.0008443
3676.63	0.0008786
3688.21	0.0009844
3699.78	0.0009808
3711.35	0.0009001
3722.93	0.000932
3734.5	0.0009618
3746.08	0.00102
3757.65	0.0009948
3769.22	0.0008096
3780.8	0.0007169
3792.37	0.0007937
3803.94	0.0007019
3815.52	0.0006447
3827.09	0.0007355
3838.67	0.0007796
3850.24	0.0007766
3861.81	0.000784
3873.39	0.000777
3884.96	0.0008423
3896.54	0.0008454
3908.11	0.000875
3919.68	0.00103
3931.26	0.0009584
3942.83	0.0008564
3954.4	0.000733
3965.98	0.0006875
3977.55	0.0007662
3989.13	0.0007661
4000.7	0.0008608
