Infrared Spectrum: 9H-IMIDAZO[2,1-i]PURINE, 9-ETHYL-7,8-DIHYDRO-
Formula: C9 H11 N5
CAS: 93227-13-5
State: SOLID (1 mg / 650 mg KBr DISC)
Class: COBLENTZ III
Instrument: PERKIN-ELMER 21 (GRATING)
Instrument parameters: FILTER AT 2490, 980 CM^-^1. GRATING 4000-1428 CM^-^1, NaCl PRISM 1428-650 CM^-^1
Sampling: TRANSMISSION
Resolution: 2
Origin: SOUTHERN RESEARCH INSTITUTE
1/CM	TRANSMITTANCE
632.219	0.675
640.678	0.4747
649.137	0.7976
657.597	0.8631
666.056	0.8402
674.515	0.8032
682.974	0.852
691.433	0.885
699.893	0.889
708.352	0.886
716.811	0.8814
725.27	0.878
733.73	0.8745
742.189	0.8705
750.648	0.8572
759.107	0.835
767.566	0.7118
776.026	0.6176
784.485	0.7951
792.944	0.7044
801.403	0.8167
809.862	0.869
818.322	0.87
826.781	0.8679
835.24	0.863
843.699	0.8581
852.158	0.8531
860.618	0.8483
869.077	0.8418
877.536	0.7741
885.995	0.685
894.454	0.8097
902.914	0.8084
911.373	0.758
919.832	0.7301
928.291	0.773
936.751	0.7646
945.21	0.8
953.669	0.8137
962.128	0.7655
970.587	0.8012
979.047	0.804
987.506	0.804
995.965	0.803
1004.42	0.7937
1012.88	0.7778
1021.34	0.77
1029.8	0.763
1038.26	0.751
1046.72	0.7204
1055.18	0.7089
1063.64	0.6966
1072.1	0.6162
1080.56	0.701
1089.02	0.635
1097.48	0.6283
1105.93	0.5539
1114.39	0.5727
1122.85	0.676
1131.31	0.6525
1139.77	0.5465
1148.23	0.4618
1156.69	0.522
1165.15	0.4271
1173.61	0.4462
1182.07	0.7067
1190.53	0.7366
1198.99	0.7238
1207.45	0.7385
1215.9	0.7448
1224.36	0.7209
1232.82	0.714
1241.28	0.7
1249.74	0.6605
1258.2	0.6119
1266.66	0.4906
1275.12	0.3674
1283.58	0.3453
1292.04	0.3729
1300.5	0.5656
1308.96	0.652
1317.41	0.6476
1325.87	0.4547
1334.33	0.4045
1342.79	0.5245
1351.25	0.6246
1359.71	0.6644
1368.17	0.6623
1376.63	0.673
1385.09	0.6217
1393.55	0.712
1402.01	0.7119
1410.47	0.6235
1418.93	0.3651
1427.38	0.5155
1435.84	0.7239
1444.3	0.652
1452.76	0.534
1461.22	0.5718
1469.68	0.6834
1478.14	0.7533
1486.6	0.76
1495.06	0.742
1503.52	0.7136
1511.98	0.721
1520.44	0.7004
1528.9	0.6544
1537.35	0.5395
1545.81	0.3898
1554.27	0.3442
1562.73	0.5993
1571.19	0.751
1579.65	0.7405
1588.11	0.7161
1596.57	0.6763
1605.03	0.642
1613.49	0.5983
1621.95	0.5247
1630.41	0.473
1638.86	0.4005
1647.32	0.3045
1655.78	0.1526
1664.24	0.146
1672.7	0.1488
1681.16	0.2468
1689.62	0.3443
1698.08	0.5529
1706.54	0.6805
1715	0.7485
1723.46	0.7943
1731.92	0.828
1740.38	0.8429
1748.83	0.8514
1757.29	0.857
1765.75	0.8507
1774.21	0.8347
1782.67	0.8402
1791.13	0.872
1799.59	0.874
1808.05	0.876
1816.51	0.8759
1824.97	0.864
1833.43	0.859
1841.89	0.857
1850.35	0.8483
1858.8	0.8283
1867.26	0.826
1875.72	0.8152
1884.18	0.8317
1892.64	0.8627
1901.1	0.865
1909.56	0.865
1918.02	0.86
1926.48	0.859
1934.94	0.858
1943.4	0.854
1951.86	0.8476
1960.31	0.8433
1968.77	0.841
1977.23	0.841
1985.69	0.84
1994.15	0.835
2002.61	0.834
2011.07	0.832
2019.53	0.832
2027.99	0.8328
2036.45	0.829
2044.91	0.829
2053.37	0.8268
2061.83	0.822
2070.28	0.82
2078.74	0.816
2087.2	0.815
2095.66	0.81
2104.12	0.808
2112.58	0.8048
2121.04	0.7988
2129.5	0.7982
2137.96	0.802
2146.42	0.802
2154.88	0.802
2163.34	0.8017
2171.8	0.799
2180.25	0.7968
2188.71	0.7962
2197.17	0.794
2205.63	0.793
2214.09	0.792
2222.55	0.7928
2231.01	0.79
2239.47	0.788
2247.93	0.787
2256.39	0.787
2264.85	0.7868
2273.31	0.784
2281.76	0.7808
2290.22	0.775
2298.68	0.775
2307.14	0.7738
2315.6	0.77
2324.06	0.769
2332.52	0.768
2340.98	0.768
2349.44	0.766
2357.9	0.766
2366.36	0.7657
2374.82	0.763
2383.28	0.761
2391.73	0.758
2400.19	0.757
2408.65	0.757
2417.11	0.756
2425.57	0.756
2434.03	0.7548
2442.49	0.752
2450.95	0.748
2459.41	0.7467
2467.87	0.745
2476.33	0.742
2484.79	0.7328
2493.25	0.7393
2501.7	0.738
2510.16	0.736
2518.62	0.735
2527.08	0.733
2535.54	0.732
2544	0.731
2552.46	0.731
2560.92	0.7318
2569.38	0.7305
2577.84	0.73
2586.3	0.73
2594.76	0.726
2603.21	0.7227
2611.67	0.72
2620.13	0.7188
2628.59	0.7148
2637.05	0.7128
2645.51	0.709
2653.97	0.7058
2662.43	0.702
2670.89	0.6998
2679.35	0.697
2687.81	0.695
2696.27	0.6948
2704.73	0.6927
2713.18	0.6888
2721.64	0.688
2730.1	0.685
2738.56	0.6865
2747.02	0.6838
2755.48	0.683
2763.94	0.683
2772.4	0.681
2780.86	0.676
2789.32	0.675
2797.78	0.6698
2806.24	0.6635
2814.7	0.657
2823.15	0.6507
2831.61	0.641
2840.07	0.6297
2848.53	0.6155
2856.99	0.6095
2865.45	0.5924
2873.91	0.582
2882.37	0.58
2890.83	0.582
2899.29	0.585
2907.75	0.585
2916.21	0.5818
2924.66	0.5688
2933.12	0.5628
2941.58	0.561
2950.04	0.5607
2958.5	0.5354
2966.96	0.523
2975.42	0.5262
2983.88	0.5393
2992.34	0.5771
3000.8	0.6395
3009.26	0.6408
3017.72	0.6335
3026.18	0.6306
3034.63	0.6662
3043.09	0.667
3051.55	0.6387
3060.01	0.6162
3068.47	0.635
3076.93	0.6796
3085.39	0.685
3093.85	0.685
3102.31	0.6848
3110.77	0.6838
3119.23	0.683
3127.69	0.681
3136.15	0.677
3144.6	0.676
3153.06	0.676
3161.52	0.675
3169.98	0.672
3178.44	0.67
3186.9	0.67
3195.36	0.6673
3203.82	0.6658
3212.28	0.661
3220.74	0.6578
3229.2	0.6548
3237.66	0.6528
3246.11	0.6478
3254.57	0.643
3263.03	0.639
3271.49	0.634
3279.95	0.631
3288.41	0.6298
3296.87	0.6267
3305.33	0.6207
3313.79	0.615
3322.25	0.6025
3330.71	0.594
3339.17	0.5828
3347.63	0.5747
3356.08	0.5664
3364.54	0.5487
3373	0.5398
3381.46	0.5304
3389.92	0.5247
3398.38	0.522
3406.84	0.522
3415.3	0.522
3423.76	0.5222
3432.22	0.523
3440.68	0.525
3449.14	0.5293
3457.59	0.534
3466.05	0.538
3474.51	0.541
3482.97	0.543
3491.43	0.545
3499.89	0.549
3508.35	0.5552
3516.81	0.5632
3525.27	0.5713
3533.73	0.5773
3542.19	0.5833
3550.65	0.589
3559.11	0.5973
3567.56	0.6042
3576.02	0.6102
3584.48	0.6182
3592.94	0.6293
3601.4	0.6362
3609.86	0.6412
3618.32	0.6532
3626.78	0.661
3635.24	0.665
3643.7	0.667
3652.16	0.67
3660.62	0.67
3669.08	0.67
3677.53	0.6698
3685.99	0.6692
3694.45	0.6702
3702.91	0.671
3711.37	0.6708
3719.83	0.67
3728.29	0.67
3736.75	0.669
3745.21	0.669
3753.67	0.67
3762.13	0.669
3770.59	0.667
3779.04	0.666
3787.5	0.665
3795.96	0.6638
3804.42	0.663
3812.88	0.663
3821.34	0.663
3829.8	0.663
3838.26	0.663
3846.72	0.663
3855.18	0.664
3863.64	0.663
3872.1	0.661
3880.56	0.66
3889.01	0.66
3897.47	0.661
3905.93	0.661
