Infrared Spectrum: PIPERAZINE, 1,4-BIS-(3-AMINOPROPYL)-2-METHYL-
Formula: C11 H26 N4
CAS: 93257-06-8
State: LIQUID (NEAT)
Class: COBLENTZ III
Instrument: BAIRD (GRATING)
Instrument parameters: NaCl PRISM
Sampling: TRANSMISSION
Path length: 0.0015 CM (CAPILLARY)
Resolution: 2
Origin: WYANDOTTE CHEMICALS CORP.
1/CM	TRANSMITTANCE
3992.02	0.9275
3983.04	0.9277
3974.06	0.9277
3965.08	0.9273
3956.11	0.9268
3947.13	0.9264
3938.15	0.9259
3929.17	0.9254
3920.19	0.9251
3911.21	0.9256
3902.23	0.9259
3893.26	0.9263
3884.28	0.9265
3875.3	0.9265
3866.32	0.9266
3857.34	0.9264
3848.36	0.9261
3839.38	0.9259
3830.41	0.9256
3821.43	0.924
3812.45	0.9222
3803.47	0.9206
3794.49	0.9187
3785.51	0.9168
3776.53	0.9149
3767.56	0.9129
3758.58	0.9103
3749.6	0.9075
3740.62	0.9047
3731.64	0.9006
3722.66	0.8953
3713.68	0.8905
3704.7	0.8856
3695.73	0.877
3686.75	0.8681
3677.77	0.858
3668.79	0.8478
3659.81	0.8363
3650.83	0.8216
3641.85	0.8078
3632.88	0.7988
3623.9	0.7905
3614.92	0.7806
3605.94	0.7696
3596.96	0.7571
3587.98	0.7429
3579	0.7287
3570.03	0.7173
3561.05	0.7083
3552.07	0.6992
3543.09	0.6899
3534.11	0.6812
3525.13	0.6739
3516.15	0.6663
3507.18	0.659
3498.2	0.6516
3489.22	0.6443
3480.24	0.6368
3471.26	0.6291
3462.28	0.6208
3453.3	0.6095
3444.33	0.5979
3435.35	0.5849
3426.37	0.5711
3417.39	0.5477
3408.41	0.5071
3399.43	0.4491
3390.45	0.3907
3381.48	0.3321
3372.5	0.2731
3363.52	0.2584
3354.54	0.2644
3345.56	0.2849
3336.58	0.3057
3327.6	0.3166
3318.63	0.3074
3309.65	0.2721
3300.67	0.2501
3291.69	0.2559
3282.71	0.2898
3273.73	0.3244
3264.75	0.3594
3255.78	0.3943
3246.8	0.4153
3237.82	0.4224
3228.84	0.426
3219.86	0.4295
3210.88	0.4349
3201.9	0.4442
3192.92	0.465
3183.95	0.4889
3174.97	0.513
3165.99	0.5372
3157.01	0.5615
3148.03	0.586
3139.05	0.6104
3130.07	0.6352
3121.1	0.6601
3112.12	0.6843
3103.14	0.6903
3094.16	0.6927
3085.18	0.6931
3076.2	0.6903
3067.22	0.6791
3058.25	0.6575
3049.27	0.5787
3040.29	0.4918
3031.31	0.4042
3022.33	0.3162
3013.35	0.2276
3004.37	0.1385
2995.4	0.0499
2986.42	0.0215
2977.44	0.0165
2968.46	0.014
2959.48	0.0135
2950.5	0.0149
2941.52	0.0192
2932.55	0.0264
2923.57	0.0322
2914.59	0.0347
2905.61	0.0316
2896.63	0.0294
2887.65	0.0283
2878.67	0.0281
2869.7	0.0286
2860.72	0.0299
2851.74	0.0313
2842.76	0.0296
2833.78	0.0243
2824.8	0.0203
2815.82	0.0191
2806.85	0.0206
2797.87	0.0219
2788.89	0.0255
2779.91	0.0309
2770.93	0.0374
2761.95	0.0454
2752.97	0.0539
2744	0.0759
2735.02	0.1156
2726.04	0.1734
2717.06	0.2172
2708.08	0.252
2699.1	0.2846
2690.12	0.3825
2681.14	0.4861
2672.17	0.5159
2663.19	0.537
2654.21	0.5594
2645.23	0.6143
2636.25	0.6356
2627.27	0.6573
2618.29	0.678
2609.32	0.6948
2600.34	0.7116
2591.36	0.7279
2582.38	0.7412
2573.4	0.7551
2564.42	0.7653
2555.44	0.774
2546.47	0.7825
2537.49	0.7925
2528.51	0.8065
2519.53	0.8218
2510.55	0.8325
2501.57	0.8418
2492.59	0.8477
2483.62	0.8531
2474.64	0.8581
2465.66	0.8623
2456.68	0.8665
2447.7	0.8696
2438.72	0.8727
2429.74	0.8755
2420.77	0.8781
2411.79	0.88
2402.81	0.8815
2393.83	0.8825
2384.85	0.8834
2375.87	0.8823
2366.89	0.8804
2357.92	0.8784
2348.94	0.8762
2339.96	0.8745
2330.98	0.8785
2322	0.887
2313.02	0.8947
2304.04	0.8976
2295.07	0.8964
2286.09	0.8859
2277.11	0.8663
2268.13	0.8702
2259.15	0.8771
2250.17	0.8781
2241.19	0.875
2232.22	0.8723
2223.24	0.8736
2214.26	0.8744
2205.28	0.8747
2196.3	0.8748
2187.32	0.8754
2178.34	0.8761
2169.36	0.8767
2160.39	0.8781
2151.41	0.8822
2142.43	0.887
2133.45	0.8912
2124.47	0.8925
2115.49	0.8812
2106.51	0.8841
2097.54	0.8889
2088.56	0.8923
2079.58	0.8947
2070.6	0.8962
2061.62	0.8967
2052.64	0.8968
2043.66	0.8971
2034.69	0.8975
2025.71	0.8978
2016.73	0.8978
2007.75	0.8977
1998.77	0.8972
1989.79	0.8956
1980.81	0.8929
1971.84	0.8885
1962.86	0.8839
1953.88	0.879
1944.9	0.8745
1935.92	0.8709
1926.94	0.8683
1917.96	0.8673
1908.99	0.8668
1900.01	0.867
1891.03	0.8698
1882.05	0.873
1873.07	0.8775
1864.09	0.8818
1855.11	0.8857
1846.14	0.8886
1837.16	0.8901
1828.18	0.8915
1819.2	0.8925
1810.22	0.8935
1801.24	0.8944
1792.26	0.8953
1783.29	0.8968
1774.31	0.8967
1765.33	0.8884
1756.35	0.876
1747.37	0.8727
1738.39	0.866
1729.41	0.8556
1720.44	0.8184
1711.46	0.8074
1702.48	0.7894
1693.5	0.7505
1684.52	0.7083
1675.54	0.6562
1666.56	0.6111
1657.58	0.5974
1648.61	0.5317
1639.63	0.4732
1630.65	0.4185
1621.67	0.3559
1612.69	0.3238
1603.71	0.355
1594.73	0.411
1585.76	0.4722
1576.78	0.5374
1567.8	0.5993
1558.82	0.6293
1549.84	0.6489
1540.86	0.6989
1531.88	0.7049
1522.91	0.7186
1513.93	0.723
1504.95	0.7059
1495.97	0.6528
1486.99	0.4302
1478.01	0.172
1469.03	0.1381
1460.06	0.1525
1451.08	0.1556
1442.1	0.3609
1433.12	0.5694
1424.14	0.6494
1415.16	0.6125
1406.18	0.4765
1397.21	0.3377
1388.23	0.2274
1379.25	0.1227
1370.27	0.0919
1361.29	0.2085
1352.31	0.1801
1343.33	0.214
1334.36	0.1492
1325.38	0.1757
1316.4	0.1634
1307.42	0.1908
1298.44	0.2302
1289.46	0.2215
1280.48	0.2128
1271.51	0.1791
1262.53	0.3298
1253.55	0.4185
1244.57	0.4384
1235.59	0.4303
1226.61	0.4578
1217.63	0.5655
1208.66	0.598
1199.68	0.5147
1190.7	0.3411
1181.72	0.1536
1172.74	0.0714
1163.76	0.0379
1154.78	0.0278
1145.8	0.0414
1136.83	0.0738
1127.85	0.1521
1118.87	0.2761
1109.89	0.3155
1100.91	0.2494
1091.93	0.1979
1082.95	0.1541
1073.98	0.1794
1065	0.1779
1056.02	0.1786
1047.04	0.2622
1038.06	0.3875
1029.08	0.4388
1020.1	0.4792
1011.13	0.481
1002.15	0.4839
993.169	0.487
984.19	0.4832
975.212	0.4725
966.233	0.4523
957.254	0.4131
948.276	0.3586
939.297	0.2932
930.319	0.2517
921.34	0.2242
912.361	0.1677
903.383	0.1242
894.404	0.1102
885.426	0.0935
876.447	0.0875
867.468	0.0986
858.49	0.0968
849.511	0.0781
840.533	0.0604
831.554	0.0481
822.575	0.0462
813.597	0.0547
804.618	0.0844
795.64	0.1403
786.661	0.1934
777.683	0.2397
768.704	0.2772
759.725	0.3
750.747	0.333
741.768	0.3869
732.79	0.4265
723.811	0.5652
714.832	0.622
705.854	0.6543
696.875	0.6677
687.897	0.673
678.918	0.6742
669.939	0.6686
660.961	0.6656
651.982	0.6482
643.004	0.6445
634.025	0.6299
