Infrared Spectrum: 1-Methylcyclooctene
Formula: C 9 H 16
CAS: 933-11-9
State: gas
Instrument: HP-GC/MS/IRD
Origin: NIST Mass Spectrometry Data Center
1/CM	ABSORBANCE
550	9.88e-05
562	0.000208
574	0.000494
586	0.0005772
598	0.0002912
610	0.0001404
622	9.36e-05
634	0.0001404
646	0
658	6.76e-05
670	0.0001248
682	0.0001872
694	0.000234
706	0.0002912
718	0.00026
730	0.0003172
742	0.0004732
754	0.0003484
766	0.0003172
778	0.000494
790	0.0005824
802	0.0009256
814	0.0018876
826	0.0024804
838	0.001586
850	0.0006448
862	0.0004316
874	0.0006136
886	0.0009984
898	0.0012272
910	0.000754
922	0.0004264
934	0.0004212
946	0.0003224
958	0.000286
970	0.0002808
982	0.0002808
994	0.0003276
1006	0.0003796
1018	0.0003536
1030	0.0003692
1042	0.0003692
1054	0.0003224
1066	0.0003692
1078	0.0005304
1090	0.0005512
1102	0.0004784
1114	0.0003172
1126	0.0002496
1138	0.000416
1150	0.0007072
1162	0.0006708
1174	0.0004316
1186	0.0003328
1198	0.0002496
1210	0.000234
1222	0.0003796
1234	0.000494
1246	0.0005564
1258	0.0006032
1270	0.0006656
1282	0.0005772
1294	0.000416
1306	0.0003328
1318	0.0003328
1330	0.0003848
1342	0.0006188
1354	0.0008892
1366	0.0010556
1378	0.0012948
1390	0.000962
1402	0.0004888
1414	0.0006656
1426	0.0013
1438	0.0032552
1450	0.0051324
1462	0.00468
1474	0.0034944
1486	0.0017524
1498	0.000702
1510	0.0003276
1522	0.0002288
1534	0.0001924
1546	0.0001924
1558	0.0001664
1570	0.0002028
1582	0.0001768
1594	0.000208
1606	0.000208
1618	0.00026
1630	0.000312
1642	0.0003588
1654	0.000416
1666	0.0004212
1678	0.0002548
1690	0.0001508
1702	0.00013
1714	0.0001508
1726	0.000156
1738	8.84e-05
1750	9.36e-05
1762	6.76e-05
1774	6.24e-05
1786	7.8e-05
1798	9.36e-05
1810	7.8e-05
1822	5.2e-05
1834	5.72e-05
1846	7.28e-05
1858	3.64e-05
1870	6.24e-05
1882	4.16e-05
1894	4.68e-05
1906	4.68e-05
1918	4.16e-05
1930	4.68e-05
1942	3.64e-05
1954	1.56e-05
1966	2.08e-05
1978	1.04e-05
1990	2.6e-05
2002	2.08e-05
2014	3.12e-05
2026	1.04e-05
2038	5.2e-05
2050	1.56e-05
2062	4.68e-05
2074	2.08e-05
2086	1.56e-05
2098	3.12e-05
2110	1.56e-05
2122	5.2e-06
2134	5.2e-06
2146	1.56e-05
2158	4.68e-05
2170	1.56e-05
2182	1.04e-05
2194	1.04e-05
2206	2.08e-05
2218	4.68e-05
2230	3.12e-05
2242	4.68e-05
2254	5.2e-05
2266	2.08e-05
2278	4.68e-05
2290	4.68e-05
2302	3.12e-05
2314	3.12e-05
2326	4.16e-05
2338	4.68e-05
2350	5.2e-05
2362	2.6e-05
2374	3.12e-05
2386	6.76e-05
2398	7.8e-05
2410	8.84e-05
2422	6.76e-05
2434	7.8e-05
2446	8.32e-05
2458	8.32e-05
2470	8.84e-05
2482	0.0001092
2494	9.36e-05
2506	7.28e-05
2518	8.84e-05
2530	0.0001092
2542	0.0001248
2554	0.0001196
2566	0.0001196
2578	0.0001352
2590	0.0001612
2602	0.0002028
2614	0.0002392
2626	0.0002652
2638	0.0003068
2650	0.0003848
2662	0.000546
2674	0.0007592
2686	0.0008164
2698	0.000676
2710	0.0005356
2722	0.0005824
2734	0.0005928
2746	0.0005304
2758	0.0005044
2770	0.0005564
2782	0.0007332
2794	0.000962
2806	0.0012272
2818	0.0015808
2830	0.0021996
2842	0.0051324
2854	0.0125164
2866	0.015496
2878	0.0118924
2890	0.010998
2902	0.0164008
2914	0.031538
2926	0.0499876
2938	0.0445328
2950	0.0213616
2962	0.0115596
2974	0.0084604
2986	0.0054912
2998	0.0033956
3010	0.0024232
3022	0.0019396
3034	0.0017992
3046	0.0015288
3058	0.0010712
3070	0.0007332
3082	0.0005824
3094	0.0005356
3106	0.0004264
3118	0.0003692
3130	0.0003172
3142	0.0002808
3154	0.000208
3166	0.0002288
3178	0.0001976
3190	0.0001768
3202	9.88e-05
3214	9.88e-05
3226	8.32e-05
3238	0.0001092
3250	0.0001092
3262	0.0001664
3274	0.0001508
3286	7.8e-05
3298	8.32e-05
3310	5.2e-05
3322	8.84e-05
3334	4.68e-05
3346	6.76e-05
3358	0.0001144
3370	0.00013
3382	8.84e-05
3394	8.84e-05
3406	9.88e-05
3418	3.64e-05
3430	6.24e-05
3442	0.000104
3454	6.24e-05
3466	7.8e-05
3478	2.6e-05
3490	5.72e-05
3502	5.2e-05
3514	4.16e-05
3526	1.04e-05
3538	3.64e-05
3550	4.68e-05
3562	5.2e-05
3574	4.16e-05
3586	6.24e-05
3598	4.16e-05
3610	2.6e-05
3622	3.12e-05
3634	4.16e-05
3646	4.16e-05
3658	4.68e-05
3670	5.2e-05
3682	0.000104
3694	5.72e-05
3706	6.76e-05
3718	5.72e-05
3730	5.72e-05
3742	0.0001248
3754	0.0001144
3766	8.32e-05
3778	0.0001144
3790	0.0001144
3802	0.0001248
3814	9.36e-05
3826	8.84e-05
3838	0.00013
