Infrared Spectrum: o-Toluyl chloride
Formula: C 8 H 7 Cl O
CAS: 933-88-0
State: gas
Origin: EPA-IR VAPOR PHASE LIBRARY
1/CM	ABSORBANCE
549.8	0.001588
559.445	0.0009465
569.09	0.0010961
578.734	0.0006883
588.379	0.001026
598.024	0.0009867
607.669	0.0013558
617.313	0.002878
626.958	0.005428
636.603	0.012248
646.248	0.023438
655.893	0.034408
665.537	0.032778
675.182	0.018538
684.827	0.007648
694.472	0.003978
704.116	0.006468
713.761	0.012088
723.406	0.015228
733.051	0.011038
742.695	0.010778
752.34	0.020718
761.985	0.037748
771.63	0.044158
781.275	0.029358
790.919	0.011028
800.564	0.005558
810.209	0.003528
819.854	0.003668
829.498	0.005408
839.143	0.009198
848.788	0.020018
858.433	0.049048
868.078	0.081748
877.722	0.072758
887.367	0.034048
897.012	0.015958
906.657	0.010438
916.301	0.007868
925.946	0.005438
935.591	0.004098
945.236	0.003268
954.88	0.002498
964.525	0.001848
974.17	0.001768
983.815	0.001608
993.46	0.001568
1003.1	0.0013854
1012.75	0.0012031
1022.39	0.0011072
1032.04	0.001748
1041.68	0.002208
1051.33	0.002528
1060.97	0.001688
1070.62	0.001648
1080.26	0.001598
1089.91	0.002118
1099.55	0.002988
1109.2	0.006058
1118.84	0.011648
1128.49	0.009918
1138.13	0.004168
1147.78	0.005438
1157.42	0.008568
1167.07	0.013348
1176.71	0.026588
1186.36	0.038328
1196	0.030718
1205.64	0.022768
1215.29	0.015368
1224.93	0.004898
1234.58	0.003228
1244.22	0.002038
1253.87	0.002398
1263.51	0.002028
1273.16	0.004098
1282.8	0.005798
1292.45	0.004698
1302.09	0.001998
1311.74	0.001468
1321.38	0.001438
1331.03	0.001304
1340.67	0.0013568
1350.32	0.0012885
1359.96	0.0013505
1369.61	0.001508
1379.25	0.002318
1388.9	0.003398
1398.54	0.003328
1408.18	0.002498
1417.83	0.002878
1427.47	0.003928
1437.12	0.005418
1446.76	0.007568
1456.41	0.010448
1466.05	0.011618
1475.7	0.010638
1485.34	0.008638
1494.99	0.005128
1504.63	0.002978
1514.28	0.002348
1523.92	0.002328
1533.57	0.002348
1543.21	0.002438
1552.86	0.003248
1562.5	0.004748
1572.15	0.005878
1581.79	0.005408
1591.44	0.005278
1601.08	0.005778
1610.73	0.003988
1620.37	0.002228
1630.01	0.002018
1639.66	0.001938
1649.3	0.001578
1658.95	0.001508
1668.59	0.001498
1678.24	0.001498
1687.88	0.001648
1697.53	0.002358
1707.17	0.003388
1716.82	0.005028
1726.46	0.007838
1736.11	0.011818
1745.75	0.015028
1755.4	0.017388
1765.04	0.024338
1774.69	0.047838
1784.33	0.086218
1793.98	0.092328
1803.62	0.052588
1813.27	0.028478
1822.91	0.015478
1832.55	0.007808
1842.2	0.004168
1851.84	0.002478
1861.49	0.001648
1871.13	0.001428
1880.78	0.0013695
1890.42	0.001478
1900.07	0.001578
1909.71	0.001448
1919.36	0.001718
1929	0.001698
1938.65	0.0013807
1948.29	0.001538
1957.94	0.001588
1967.58	0.0011912
1977.23	0.0008467
1986.87	0.0007918
1996.52	0.0007518
2006.16	0.0005442
2015.81	0.00047176
2025.45	0.000512
2035.1	0.0006226
2044.74	0.000741
2054.38	0.0007898
2064.03	0.0007411
2073.67	0.0006771
2083.32	0.0005877
2092.96	0.0005607
2102.61	0.00045684
2112.25	0.0003373
2121.9	0.0003728
2131.54	0.00046851
2141.19	0.0003973
2150.83	0.000524
2160.48	0.00050262
2170.12	0.0005202
2179.77	0.00045766
2189.41	0.00044874
2199.06	0.0004441
2208.7	0.0004022
2218.35	0.00049029
2227.99	0.0005995
2237.64	0.00040628
2247.28	0.0005663
2256.92	0.0003748
2266.57	0.00049459
2276.21	0.0005261
2285.86	0.0006403
2295.5	0.0006094
2305.15	0.000647
2314.79	0.0005867
2324.44	0.0007077
2334.08	0.0006817
2343.73	0.0006303
2353.37	0.0006262
2363.02	0.0007265
2372.66	0.0007344
2382.31	0.0007032
2391.95	0.0005629
2401.6	0.0005349
2411.24	0.00042573
2420.89	0.00046252
2430.53	0.00046489
2440.18	0.0003841
2449.82	0.0005789
2459.47	0.00044785
2469.11	0.0003592
2478.75	0.000328
2488.4	0.00045829
2498.04	0.0003281
2507.69	0.00043429
2517.33	0.0003137
2526.98	0.0005484
2536.62	0.00044021
2546.27	0.00044014
2555.91	0.00043478
2565.56	0.0004749
2575.2	0.000411706
2584.85	0.00047571
2594.49	0.00048481
2604.14	0.00048836
2613.78	0.00046831
2623.43	0.00040274
2633.07	0.00048334
2642.72	0.0005199
2652.36	0.0006806
2662.01	0.0006618
2671.65	0.0006325
2681.29	0.0006947
2690.94	0.0006498
2700.58	0.00043316
2710.23	0.0006312
2719.87	0.0005349
2729.52	0.00048293
2739.16	0.0006111
2748.81	0.0007578
2758.45	0.0008651
2768.1	0.0008295
2777.74	0.0006211
2787.39	0.0006991
2797.03	0.0007041
2806.68	0.0005339
2816.32	0.0007305
2825.97	0.0007096
2835.61	0.0010538
2845.26	0.0009904
2854.9	0.001448
2864.55	0.001588
2874.19	0.002118
2883.84	0.002298
2893.48	0.001988
2903.12	0.002058
2912.77	0.002378
2922.41	0.002928
2932.06	0.004178
2941.7	0.005758
2951.35	0.005598
2960.99	0.004488
2970.64	0.004508
2980.28	0.005728
2989.93	0.005638
2999.57	0.004048
3009.22	0.003468
3018.86	0.003828
3028.51	0.005118
3038.15	0.004798
3047.8	0.004338
3057.44	0.006408
3067.09	0.009878
3076.73	0.010428
3086.38	0.006358
3096.02	0.003328
3105.67	0.002208
3115.31	0.001498
3124.95	0.0011227
3134.6	0.001035
3144.24	0.0008741
3153.89	0.0008726
3163.53	0.0006674
3173.18	0.00045272
3182.82	0.000407272
3192.47	0.00049506
3202.11	0.00045598
3211.76	0.000303
3221.4	9.1e-05
3231.05	0.00047574
3240.69	0.00044166
3250.34	0.0005181
3259.98	1.7e-05
3269.63	0.000413739
3279.27	0.0004901
3288.92	0.000449
3298.56	0.0004668
3308.21	0.00013
3317.85	0.000164
3327.49	0.00046154
3337.14	0.000286
3346.78	0.000135
3356.43	0.00042097
3366.07	0.0005264
3375.72	0.00047738
3385.36	0.000252
3395.01	0.00046038
3404.65	0.000261
3414.3	0.0003951
3423.94	0.0003465
3433.59	0.0003102
3443.23	0.000307
3452.88	0.00040096
3462.52	0.0004416
3472.17	0.0003901
3481.81	0.00049933
3491.46	0.0003081
3501.1	0.00049941
3510.75	0.0006995
3520.39	0.0011812
3530.04	0.001448
3539.68	0.0011347
3549.32	0.001151
3558.97	0.0010493
3568.61	0.00102
3578.26	0.0009554
3587.9	0.0008114
3597.55	0.0005772
3607.19	0.00050781
3616.84	0.00050145
3626.48	0.0003426
3636.13	0.000241
3645.77	0.0003891
3655.42	0.0003852
3665.06	0.000129
3674.71	0.0004132
3684.35	0.00041385
3694	0.0003241
3703.64	0.000211
3713.29	0.00046889
3722.93	0.00014
3732.58	0.00044041
3742.22	0.0003249
3751.86	0.0003671
3761.51	0.0003426
3771.15	0.00050794
3780.8	0.00040378
3790.44	0.000237
3800.09	0.00047985
3809.73	0.0003
3819.38	0.000133
3829.02	0.000276
3838.67	0.0003721
3848.31	0.000235
3857.96	0.0003551
3867.6	0.0005401
3877.25	9.8e-05
3886.89	0.0003763
3896.54	0.000243
3906.18	0.0006955
3915.83	0.00050447
3925.47	0.00047926
3935.12	0.0003886
3944.76	0.0006377
3954.41	0.0003645
3964.05	0.0004829
3973.69	0.000262
3983.34	0.0003801
3992.98	0.00040224
