Infrared Spectrum: 2,2,4,4-Tetramethyl-1,3-cyclobutanedione
Formula: C 8 H 12 O 2
CAS: 933-52-8
State: gas
Instrument: HP-GC/MS/IRD
Origin: NIST Mass Spectrometry Data Center
1/CM	ABSORBANCE
550	8.68e-05
562	4.34e-05
574	0.0001395
586	6.82e-05
598	0.0001984
610	0.0001705
622	0.0001581
634	0.0002883
646	0.0001333
658	0.0001705
670	0.0002387
682	0.0001426
694	0.0001488
706	0.0002015
718	0.0001116
730	0.000186
742	0.0003441
754	0.0006169
766	0.0006231
778	0.0003813
790	0.0002511
802	0.0002945
814	0.0005456
826	0.0004433
838	0.0002976
850	0.0002573
862	0.0002728
874	0.0002728
886	0.0003007
898	0.0002945
910	0.0003503
922	0.0003348
934	0.0003069
946	0.0004061
958	0.0006138
970	0.0009269
982	0.0013144
994	0.0017329
1006	0.002139
1018	0.0028334
1030	0.0048825
1042	0.0067797
1054	0.0048608
1066	0.0018414
1078	0.000837
1090	0.0005611
1102	0.0004619
1114	0.000403
1126	0.0003193
1138	0.0003472
1150	0.0004309
1162	0.0005735
1174	0.0007595
1186	0.0007192
1198	0.0004588
1210	0.0004774
1222	0.0005921
1234	0.001023
1246	0.0025947
1258	0.005766
1270	0.0055676
1282	0.0021545
1294	0.0008494
1306	0.0005394
1318	0.0003906
1330	0.0003286
1342	0.0003627
1354	0.0007037
1366	0.0014012
1378	0.001643
1390	0.0013578
1402	0.0007223
1414	0.0006448
1426	0.0007316
1438	0.0012958
1450	0.0027156
1462	0.0032953
1474	0.0020398
1486	0.0007471
1498	0.0003751
1510	0.00031
1522	0.0002542
1534	0.0002077
1546	0.0002108
1558	0.0002139
1570	0.0002232
1582	0.0002573
1594	0.0002976
1606	0.0003565
1618	0.0003658
1630	0.0003844
1642	0.0003875
1654	0.0004433
1666	0.0005549
1678	0.000837
1690	0.001364
1702	0.0023374
1714	0.003534
1726	0.0050437
1738	0.0110081
1750	0.025265
1762	0.0297011
1774	0.0137795
1786	0.003379
1798	0.0013702
1810	0.0007316
1822	0.0005022
1834	0.0004278
1846	0.0003937
1858	0.0003689
1870	0.0003875
1882	0.0004247
1894	0.0004898
1906	0.0005766
1918	0.0005425
1930	0.0004216
1942	0.0003348
1954	0.0002635
1966	0.0001891
1978	0.0001364
1990	0.0001178
2002	0.0001054
2014	0.0001023
2026	9.92e-05
2038	8.68e-05
2050	5.89e-05
2062	6.51e-05
2074	4.34e-05
2086	5.27e-05
2098	4.96e-05
2110	7.44e-05
2122	8.06e-05
2134	8.99e-05
2146	8.99e-05
2158	0.0001054
2170	8.06e-05
2182	6.82e-05
2194	4.03e-05
2206	4.65e-05
2218	2.79e-05
2230	2.79e-05
2242	4.03e-05
2254	6.2e-06
2266	3.41e-05
2278	2.48e-05
2290	3.72e-05
2302	4.65e-05
2314	6.2e-05
2326	6.51e-05
2338	7.44e-05
2350	7.75e-05
2362	7.75e-05
2374	9.61e-05
2386	0.0001178
2398	9.3e-05
2410	5.58e-05
2422	6.2e-05
2434	4.34e-05
2446	3.41e-05
2458	1.24e-05
2470	2.17e-05
2482	1.86e-05
2494	3.1e-06
2506	3.72e-05
2518	4.03e-05
2530	1.55e-05
2542	2.17e-05
2554	1.86e-05
2566	4.03e-05
2578	1.86e-05
2590	3.72e-05
2602	5.27e-05
2614	5.89e-05
2626	6.82e-05
2638	5.89e-05
2650	4.03e-05
2662	2.79e-05
2674	3.72e-05
2686	9.3e-06
2698	1.86e-05
2710	2.17e-05
2722	8.06e-05
2734	8.37e-05
2746	5.27e-05
2758	8.06e-05
2770	7.44e-05
2782	9.61e-05
2794	0.0001705
2806	0.0002232
2818	0.0002697
2830	0.0003224
2842	0.0003875
2854	0.000713
2866	0.0019344
2878	0.0029946
2890	0.0022475
2902	0.0016461
2914	0.0019933
2926	0.0035743
2938	0.0048763
2950	0.0034007
2962	0.0053351
2974	0.0099231
2986	0.0064139
2998	0.0016771
3010	0.0005704
3022	0.0003472
3034	0.0003038
3046	0.0002449
3058	0.0002325
3070	0.0002139
3082	0.0002511
3094	0.0002294
3106	0.0002542
3118	0.000248
3130	0.0002542
3142	0.0002883
3154	0.0002511
3166	0.000217
3178	0.0001271
3190	6.82e-05
3202	4.34e-05
3214	7.44e-05
3226	5.58e-05
3238	8.06e-05
3250	9.61e-05
3262	6.2e-05
3274	4.96e-05
3286	7.44e-05
3298	3.1e-06
3310	5.58e-05
3322	5.89e-05
3334	3.72e-05
3346	1.24e-05
3358	1.86e-05
3370	8.68e-05
3382	3.72e-05
3394	3.1e-05
3406	2.79e-05
3418	4.65e-05
3430	4.03e-05
3442	2.17e-05
3454	5.27e-05
3466	7.13e-05
3478	5.27e-05
3490	0.0001054
3502	0.0001488
3514	0.0001643
3526	0.0001705
3538	0.0002015
3550	0.0002077
3562	0.0002728
3574	0.0003007
3586	0.000372
3598	0.0003689
3610	0.0002604
3622	0.0001705
3634	0.0001457
3646	5.89e-05
3658	8.99e-05
3670	3.41e-05
3682	4.03e-05
3694	3.1e-05
3706	4.96e-05
3718	6.2e-06
3730	7.75e-05
3742	5.89e-05
3754	5.27e-05
3766	4.03e-05
3778	4.65e-05
3790	7.75e-05
3802	6.82e-05
3814	6.51e-05
3826	8.99e-05
3838	8.37e-05
