Infrared Spectrum: 4,5-Dichloro-2-methylpyridazin-3-one
Formula: C 5 H 4 Cl 2 N 2 O
CAS: 933-76-6
State: gas
Origin: EPA-IR VAPOR PHASE LIBRARY
1/CM	ABSORBANCE
549.8	0.019269
559.445	0.004149
569.09	0.001489
578.734	0.001419
588.379	0.002619
598.024	0.004039
607.669	0.009919
617.313	0.022489
626.958	0.048119
636.603	0.031679
646.248	0.009379
655.893	0.004029
665.537	0.002579
675.182	0.002989
684.827	0.004729
694.472	0.015429
704.116	0.054559
713.761	0.064409
723.406	0.035419
733.051	0.021819
742.695	0.021289
752.34	0.019669
761.985	0.011379
771.63	0.003979
781.275	0.003029
790.919	0.002869
800.564	0.002929
810.209	0.003849
819.854	0.005859
829.498	0.008159
839.143	0.014159
848.788	0.044569
858.433	0.128409
868.078	0.252109
877.722	0.213919
887.367	0.046799
897.012	0.008649
906.657	0.005829
916.301	0.006029
925.946	0.011659
935.591	0.048029
945.236	0.163639
954.88	0.186599
964.525	0.062579
974.17	0.022459
983.815	0.018319
993.46	0.033279
1003.1	0.080839
1012.75	0.147809
1022.39	0.150199
1032.04	0.084409
1041.68	0.039439
1051.33	0.022259
1060.97	0.012839
1070.62	0.010089
1080.26	0.007889
1089.91	0.008689
1099.55	0.009579
1109.2	0.015979
1118.84	0.038159
1128.49	0.067579
1138.13	0.067619
1147.78	0.047289
1157.42	0.027809
1167.07	0.012489
1176.71	0.010479
1186.36	0.017759
1196	0.037859
1205.64	0.079709
1215.29	0.127919
1224.93	0.113329
1234.58	0.056869
1244.22	0.092409
1253.87	0.138959
1263.51	0.093719
1273.16	0.038649
1282.8	0.042899
1292.45	0.065439
1302.09	0.054449
1311.74	0.021769
1321.38	0.014649
1331.03	0.014329
1340.67	0.017419
1350.32	0.024559
1359.96	0.030539
1369.61	0.030809
1379.25	0.023569
1388.9	0.014429
1398.54	0.013109
1408.18	0.015809
1417.83	0.016259
1427.47	0.013709
1437.12	0.014449
1446.76	0.014769
1456.41	0.015239
1466.05	0.017339
1475.7	0.018899
1485.34	0.022569
1494.99	0.025429
1504.63	0.021199
1514.28	0.015209
1523.92	0.013439
1533.57	0.015529
1543.21	0.021509
1552.86	0.027909
1562.5	0.053939
1572.15	0.158189
1581.79	0.232349
1591.44	0.126549
1601.08	0.032279
1610.73	0.021549
1620.37	0.020229
1630.01	0.025709
1639.66	0.034929
1649.3	0.047319
1658.95	0.065619
1668.59	0.119449
1678.24	0.279999
1687.88	0.714619
1697.53	1.09569
1707.17	0.790289
1716.82	0.192909
1726.46	0.076809
1736.11	0.056369
1745.75	0.045079
1755.4	0.026449
1765.04	0.012399
1774.69	0.010199
1784.33	0.011609
1793.98	0.011129
1803.62	0.007009
1813.27	0.004339
1822.91	0.003899
1832.55	0.004279
1842.2	0.004369
1851.84	0.003909
1861.49	0.004139
1871.13	0.005149
1880.78	0.006679
1890.42	0.006819
1900.07	0.005259
1909.71	0.003669
1919.36	0.002839
1929	0.002709
1938.65	0.002409
1948.29	0.002259
1957.94	0.002129
1967.58	0.001879
1977.23	0.001789
1986.87	0.002009
1996.52	0.002389
2006.16	0.002539
2015.81	0.002619
2025.45	0.002819
2035.1	0.003099
2044.74	0.002959
2054.38	0.002699
2064.03	0.002499
2073.67	0.002839
2083.32	0.003039
2092.96	0.002759
2102.61	0.002599
2112.25	0.002839
2121.9	0.003379
2131.54	0.003609
2141.19	0.003579
2150.83	0.003849
2160.48	0.003829
2170.12	0.003309
2179.77	0.002249
2189.41	0.001589
2199.06	0.001749
2208.7	0.002009
2218.35	0.002089
2227.99	0.002049
2237.64	0.002619
2247.28	0.003409
2256.92	0.004369
2266.57	0.004719
2276.21	0.004279
2285.86	0.004059
2295.5	0.004169
2305.15	0.004809
2314.79	0.005319
2324.44	0.005029
2334.08	0.004049
2343.73	0.003559
2353.37	0.003479
2363.02	0.003079
2372.66	0.003079
2382.31	0.003069
2391.95	0.002789
2401.6	0.003099
2411.24	0.003949
2420.89	0.004839
2430.53	0.005259
2440.18	0.004259
2449.82	0.003199
2459.47	0.002449
2469.11	0.002199
2478.75	0.002199
2488.4	0.002789
2498.04	0.003709
2507.69	0.004539
2517.33	0.004689
2526.98	0.004269
2536.62	0.004189
2546.27	0.003999
2555.91	0.003659
2565.56	0.003219
2575.2	0.003389
2584.85	0.003569
2594.49	0.003499
2604.14	0.003159
2613.78	0.003009
2623.43	0.003519
2633.07	0.003969
2642.72	0.004159
2652.36	0.003659
2662.01	0.002399
2671.65	0.001439
2681.29	0.001379
2690.94	0.0011741
2700.58	0.0013213
2710.23	0.001799
2719.87	0.001829
2729.52	0.001679
2739.16	0.001779
2748.81	0.002049
2758.45	0.002419
2768.1	0.002319
2777.74	0.003059
2787.39	0.004089
2797.03	0.005089
2806.68	0.005389
2816.32	0.004809
2825.97	0.003969
2835.61	0.003819
2845.26	0.003909
2854.9	0.004599
2864.55	0.005869
2874.19	0.007519
2883.84	0.008969
2893.48	0.010749
2903.12	0.013019
2912.77	0.015649
2922.41	0.017229
2932.06	0.017469
2941.7	0.023069
2951.35	0.042229
2960.99	0.060779
2970.64	0.044469
2980.28	0.020979
2989.93	0.015869
2999.57	0.013909
3009.22	0.009799
3018.86	0.006539
3028.51	0.005119
3038.15	0.004609
3047.8	0.004429
3057.44	0.004539
3067.09	0.004159
3076.73	0.003689
3086.38	0.003889
3096.02	0.004149
3105.67	0.003919
3115.31	0.003129
3124.95	0.002479
3134.6	0.001989
3144.24	0.001879
3153.89	0.001729
3163.53	0.001399
3173.18	0.001025
3182.82	0.0009392
3192.47	0.0012083
3202.11	0.0011837
3211.76	0.0009846
3221.4	0.0010671
3231.05	0.0009893
3240.69	0.0007149
3250.34	0.0006119
3259.98	0.0009483
3269.63	0.0007688
3279.27	0.0012187
3288.92	0.0010413
3298.56	0.0011419
3308.21	0.0008819
3317.85	0.0012701
3327.49	0.001579
3337.14	0.002309
3346.78	0.003699
3356.43	0.005949
3366.07	0.009249
3375.72	0.011419
3385.36	0.009599
3395.01	0.005689
3404.65	0.002729
3414.3	0.001919
3423.94	0.001419
3433.59	0.0009433
3443.23	0.0007483
3452.88	0.0007735
3462.52	0.00042354
3472.17	0.0005221
3481.81	0.00038558
3491.46	0.000745
3501.1	0.0002859
3510.75	0.000414
3520.39	0.0002444
3530.04	0.00037637
3539.68	0.0003046
3549.32	0.000459
3558.97	0.0008691
3568.61	0.0007067
3578.26	0.0003259
3587.9	0.0004466
3597.55	0.000344865
3607.19	0.0005256
3616.84	0.0004538
3626.48	0.00033704
3636.13	0.0005733
3645.77	0.000109
3655.42	0.0006156
3665.06	0.00035027
3674.71	0.0004648
3684.35	0.0006309
3694	0.0005207
3703.64	0
3713.29	0.0007325
3722.93	0.0005635
3732.58	0.000531
3742.22	0.00040736
3751.86	0.0004478
3761.51	0.000564
3771.15	0.0004608
3780.8	0.00042476
3790.44	0.00036238
3800.09	0.0004632
3809.73	0.0006798
3819.38	0.0002554
3829.02	0.000107
3838.67	0.0003087
3848.31	0.0002916
3857.96	0.000458
3867.6	0.0004919
3877.25	0.000315
3886.89	0.0002707
3896.54	0.0003574
3906.18	0.0005099
3915.83	0.0005044
3925.47	0.00043414
3935.12	0.0003155
3944.76	0.000235
3954.41	0.0004496
3964.05	0.00037887
3973.69	0.0002918
3983.34	0.000145
3992.98	0.0004885
