Infrared Spectrum: 3,5,5-Trimethylcyclohexene
Formula: C 9 H 16
CAS: 933-12-0
State: gas
Instrument: HP-GC/MS/IRD
Origin: NIST Mass Spectrometry Data Center
1/CM	ABSORBANCE
550	0.000204
562	8.1e-05
574	5.25e-05
586	0.0002265
598	0.000294
610	0.0002535
622	0.000255
634	0.0002235
646	0.000345
658	0.000642
670	0.0013695
682	0.0012915
694	0.001239
706	0.0019455
718	0.00153
730	0.0007155
742	0.000384
754	0.0002505
766	0.000324
778	0.0003825
790	0.0004155
802	0.000378
814	0.000282
826	0.0002535
838	0.0005475
850	0.000549
862	0.0003465
874	0.0004065
886	0.000513
898	0.0006105
910	0.000471
922	0.0003345
934	0.000372
946	0.0004335
958	0.000444
970	0.0005505
982	0.000864
994	0.0009345
1006	0.000705
1018	0.000465
1030	0.000402
1042	0.0004245
1054	0.000357
1066	0.0004035
1078	0.000351
1090	0.0002595
1102	0.0003285
1114	0.000453
1126	0.0004845
1138	0.000495
1150	0.0005325
1162	0.000477
1174	0.000429
1186	0.0003225
1198	0.0002355
1210	0.0001905
1222	0.00027
1234	0.000246
1246	0.000261
1258	0.000297
1270	0.000423
1282	0.000531
1294	0.000675
1306	0.0008295
1318	0.000612
1330	0.000495
1342	0.000615
1354	0.0009825
1366	0.001638
1378	0.0017295
1390	0.0013545
1402	0.0008265
1414	0.000498
1426	0.0006435
1438	0.001044
1450	0.0016935
1462	0.002082
1474	0.001575
1486	0.0009015
1498	0.000429
1510	0.0002205
1522	0.0001935
1534	0.000177
1546	0.000117
1558	0.000159
1570	0.0001605
1582	0.000156
1594	0.0001575
1606	0.000162
1618	0.000213
1630	0.000336
1642	0.0005145
1654	0.0004695
1666	0.000372
1678	0.000273
1690	0.000174
1702	0.0001155
1714	7.35e-05
1726	0.0001005
1738	6.75e-05
1750	9.3e-05
1762	8.85e-05
1774	8.55e-05
1786	6.45e-05
1798	7.35e-05
1810	8.1e-05
1822	6e-05
1834	6.3e-05
1846	0.0001155
1858	0.0001245
1870	8.4e-05
1882	4.95e-05
1894	6.9e-05
1906	8.1e-05
1918	5.7e-05
1930	7.5e-05
1942	6e-05
1954	6.15e-05
1966	5.25e-05
1978	4.8e-05
1990	4.95e-05
2002	7.65e-05
2014	4.95e-05
2026	2.25e-05
2038	4.8e-05
2050	6.9e-05
2062	4.35e-05
2074	2.4e-05
2086	3.9e-05
2098	6.3e-05
2110	3.75e-05
2122	1.8e-05
2134	5.1e-05
2146	1.2e-05
2158	1.65e-05
2170	1.95e-05
2182	4.95e-05
2194	1.5e-05
2206	2.4e-05
2218	2.4e-05
2230	2.55e-05
2242	3.15e-05
2254	3.9e-05
2266	5.25e-05
2278	5.25e-05
2290	3.45e-05
2302	7.05e-05
2314	2.7e-05
2326	3.9e-05
2338	3.15e-05
2350	7.05e-05
2362	5.25e-05
2374	4.2e-05
2386	7.65e-05
2398	6.45e-05
2410	4.65e-05
2422	5.7e-05
2434	7.65e-05
2446	7.05e-05
2458	9.3e-05
2470	7.35e-05
2482	5.1e-05
2494	6.9e-05
2506	8.85e-05
2518	0.0001065
2530	9.3e-05
2542	0.0001185
2554	0.0001275
2566	0.0001515
2578	0.000159
2590	0.0001515
2602	0.0001485
2614	0.000162
2626	0.000201
2638	0.0002025
2650	0.000201
2662	0.000186
2674	0.0002205
2686	0.000216
2698	0.0002655
2710	0.0002895
2722	0.0003705
2734	0.000384
2746	0.000366
2758	0.000366
2770	0.000414
2782	0.0004605
2794	0.000558
2806	0.000699
2818	0.0010995
2830	0.002232
2842	0.003621
2854	0.0042465
2866	0.0058905
2878	0.007863
2890	0.008646
2902	0.010437
2914	0.0107085
2926	0.0081855
2938	0.008019
2950	0.01179
2962	0.015
2974	0.0090285
2986	0.0031455
2998	0.0015105
3010	0.002727
3022	0.0045345
3034	0.003291
3046	0.001062
3058	0.000756
3070	0.000618
3082	0.000405
3094	0.000345
3106	0.0003495
3118	0.0003105
3130	0.0002655
3142	0.0002895
3154	0.000297
3166	0.0003315
3178	0.0003645
3190	0.000375
3202	0.000396
3214	0.000324
3226	0.0002475
3238	0.000222
3250	0.0001695
3262	0.0001935
3274	0.0001725
3286	0.000189
3298	0.0001995
3310	0.0002115
3322	0.0001755
3334	0.0001755
3346	0.0001455
3358	0.0001335
3370	0.000144
3382	0.000162
3394	0.000105
3406	0.0001245
3418	0.0001245
3430	0.000132
3442	0.000111
3454	6.6e-05
3466	0.0001005
3478	6.75e-05
3490	0.0001245
3502	7.2e-05
3514	0.0001155
3526	6.15e-05
3538	6.45e-05
3550	4.8e-05
3562	4.8e-05
3574	7.65e-05
3586	6.9e-05
3598	4.8e-05
3610	6.6e-05
3622	0.000135
3634	9.15e-05
3646	0.000108
3658	0.000135
3670	0.000138
3682	0.0001455
3694	0.000105
3706	0.0001545
3718	0.000162
3730	0.0001635
3742	0.000225
3754	0.000165
3766	0.000168
3778	0.0001515
3790	0.000135
3802	0.0002085
3814	0.0001875
3826	0.000162
3838	0.000144
