Infrared Spectrum: 1,2-Dimethyl-3-ethylbenzene
Formula: C 10 H 14
CAS: 933-98-2
State: gas
Instrument: HP-GC/MS/IRD
Origin: NIST Mass Spectrometry Data Center
1/CM	ABSORBANCE
550	0.0005629
562	0.0003094
574	0.0003679
586	0.0002067
598	0.000104
610	0.0001092
622	0.0001014
634	0.0001391
646	0.0001248
658	0.0001885
670	3.25e-05
682	0.0001339
694	0.0002652
706	0.001079
718	0.0022867
730	0.0017537
742	0.001131
754	0.0017472
766	0.0030888
778	0.0038818
790	0.0020384
802	0.0008489
814	0.0004602
826	1.17e-05
838	5.85e-05
850	0.0001378
862	0.0001521
874	8.71e-05
886	5.72e-05
898	2.34e-05
910	6.5e-06
922	5.2e-06
934	7.02e-05
946	0.0002327
958	0.000559
970	0.0005083
982	0.0004134
994	0.0004719
1006	0.0004407
1018	0.0003783
1030	0.00052
1042	0.0005785
1054	0.0007709
1066	0.00065
1078	0.0003952
1090	0.0006227
1102	0.0007969
1114	0.0004485
1126	0.0001612
1138	7.93e-05
1150	0.0001313
1162	0.0001183
1174	0.00013
1186	0.0001131
1198	0.0001534
1210	0.0001391
1222	0.0001794
1234	0.00026
1246	0.0002912
1258	0.0002054
1270	0.0001664
1282	0.0001768
1294	0.0002496
1306	0.000429
1318	0.000611
1330	0.0005733
1342	0.0004238
1354	0.0004212
1366	0.000611
1378	0.0010608
1390	0.0010933
1402	0.000754
1414	0.0006695
1426	0.0009776
1438	0.0019175
1450	0.003406
1462	0.0044564
1474	0.0042445
1486	0.0026273
1498	0.0012285
1510	0.0007436
1522	0.0006149
1534	0.0005343
1546	0.0005421
1558	0.0006331
1570	0.0008528
1582	0.0012558
1594	0.0011869
1606	0.0006344
1618	0.0003627
1630	0.0002522
1642	0.0002288
1654	0.0002509
1666	0.0003003
1678	0.0002288
1690	0.0001209
1702	0.000117
1714	8.32e-05
1726	0.0001066
1738	0.0001118
1750	7.28e-05
1762	0.0001014
1774	0.0002262
1786	0.0001872
1798	7.41e-05
1810	6.5e-05
1822	0.0001027
1834	0.0001742
1846	0.0002821
1858	0.0001924
1870	5.07e-05
1882	6.37e-05
1894	0.0001183
1906	0.0002873
1918	0.0003315
1930	0.0001677
1942	5.85e-05
1954	2.34e-05
1966	2.99e-05
1978	2.47e-05
1990	2.47e-05
2002	2.34e-05
2014	2.47e-05
2026	3.51e-05
2038	5.98e-05
2050	3.51e-05
2062	2.34e-05
2074	2.6e-06
2086	1.3e-05
2098	1.17e-05
2110	1.82e-05
2122	2.86e-05
2134	1.17e-05
2146	2.73e-05
2158	2.21e-05
2170	3.77e-05
2182	7.8e-06
2194	2.86e-05
2206	3.38e-05
2218	2.6e-05
2230	2.99e-05
2242	4.94e-05
2254	4.55e-05
2266	4.29e-05
2278	1.82e-05
2290	3.25e-05
2302	3.9e-06
2314	2.73e-05
2326	8.06e-05
2338	9.88e-05
2350	5.46e-05
2362	7.54e-05
2374	5.33e-05
2386	8.06e-05
2398	6.89e-05
2410	7.02e-05
2422	9.75e-05
2434	8.45e-05
2446	6.63e-05
2458	7.54e-05
2470	7.54e-05
2482	9.36e-05
2494	8.45e-05
2506	7.02e-05
2518	8.45e-05
2530	9.49e-05
2542	8.32e-05
2554	0.0001196
2566	8.58e-05
2578	7.54e-05
2590	8.32e-05
2602	7.54e-05
2614	0.0001131
2626	0.0001521
2638	0.000156
2650	0.000117
2662	0.00013
2674	0.0001131
2686	0.0001417
2698	0.0001352
2710	0.0002379
2722	0.0002938
2734	0.0004069
2746	0.000455
2758	0.0003575
2770	0.000429
2782	0.0004836
2794	0.0005174
2806	0.0005876
2818	0.0007332
2830	0.0009815
2842	0.0014313
2854	0.0023062
2866	0.003874
2878	0.0061282
2890	0.0069212
2902	0.0062569
2914	0.006604
2926	0.0083148
2938	0.0103012
2950	0.0102986
2962	0.0109629
2974	0.012948
2986	0.0081458
2998	0.0043693
3010	0.0043459
3022	0.0051337
3034	0.0048984
3046	0.0045227
3058	0.0048906
3070	0.0046397
3082	0.0029133
3094	0.0014274
3106	0.0008073
3118	0.0006149
3130	0.0005837
3142	0.0004719
3154	0.0004277
3166	0.0004017
3178	0.0003523
3190	0.0002613
3202	0.0001729
3214	0.0001638
3226	0.0001001
3238	0.0001196
3250	0.0001144
3262	9.62e-05
3274	0.0001014
3286	0.0001118
3298	9.23e-05
3310	8.97e-05
3322	8.06e-05
3334	0.0001183
3346	8.06e-05
3358	4.16e-05
3370	9.88e-05
3382	6.37e-05
3394	0.0001027
3406	8.58e-05
3418	5.98e-05
3430	4.29e-05
3442	9.36e-05
3454	9.88e-05
3466	9.62e-05
3478	6.5e-05
3490	7.93e-05
3502	4.55e-05
3514	7.28e-05
3526	3.9e-05
3538	5.98e-05
3550	6.76e-05
3562	9.88e-05
3574	6.11e-05
3586	2.86e-05
3598	5.98e-05
3610	7.41e-05
3622	1.3e-06
3634	3.38e-05
3646	7.93e-05
3658	5.72e-05
3670	5.33e-05
3682	9.75e-05
3694	9.49e-05
3706	0.000169
3718	0.0001014
3730	9.49e-05
3742	7.54e-05
3754	5.46e-05
3766	0.0001365
3778	4.42e-05
3790	0.0001118
3802	8.45e-05
3814	0.0001079
3826	0.0001404
3838	0.0001235
