Infrared Spectrum: 2-(N,N-DIPHENYLAMINO)-3-METHYL PYRAZINE
Formula: C17 H15 N3
CAS: 93317-20-5
State: SOLID (MINERAL OIL MULL)
Melting point: 113-114.5 C
Class: COBLENTZ
Instrument: Not specified, most likely a prism, grating, or hybrid spectrometer.
Sampling: TRANSMISSION
Resolution: 4
Origin: WYANDOTTE CHEMICALS CORP., WYANDOTTE, MICHIGAN, USA
MICROMETERS	TRANSMITTANCE
2.033	0.456
2.07273	0.456
2.11247	0.459
2.1522	0.462
2.19194	0.466
2.23167	0.475
2.27141	0.485
2.31114	0.492
2.35087	0.499
2.39061	0.504
2.43034	0.517
2.47008	0.524
2.50981	0.53
2.54955	0.54
2.58928	0.543
2.62902	0.543
2.66875	0.543
2.70848	0.543
2.74822	0.547
2.78795	0.548
2.82769	0.542
2.86742	0.543
2.90716	0.543
2.94689	0.54
2.98662	0.543
3.02636	0.552
3.06609	0.572
3.10583	0.575
3.14556	0.57
3.1853	0.58
3.22503	0.565
3.26476	0.407
3.3045	0.426
3.34423	0.102
3.38397	0.043
3.4237	0.102
3.46344	0.16
3.50317	0.22
3.54291	0.626
3.58264	0.729
3.62237	0.752
3.66211	0.746
3.70184	0.742
3.74158	0.751
3.78131	0.757
3.82105	0.761
3.86078	0.766
3.90051	0.776
3.94025	0.779
3.97998	0.789
4.01972	0.799
4.05945	0.799
4.09919	0.802
4.13892	0.807
4.17865	0.81
4.21839	0.817
4.25812	0.8
4.29786	0.799
4.33759	0.81
4.37733	0.835
4.41706	0.85
4.4568	0.849
4.49653	0.852
4.53626	0.855
4.576	0.859
4.61573	0.864
4.65547	0.864
4.6952	0.877
4.73494	0.883
4.77467	0.887
4.8144	0.888
4.85414	0.893
4.89387	0.9
4.93361	0.902
4.97334	0.902
5.01308	0.905
5.05281	0.905
5.09254	0.903
5.13228	0.888
5.17201	0.87
5.21175	0.88
5.25148	0.88
5.29122	0.912
5.33095	0.898
5.37069	0.895
5.41042	0.912
5.45015	0.933
5.48989	0.933
5.52962	0.918
5.56936	0.895
5.60909	0.918
5.64883	0.936
5.68856	0.948
5.72829	0.95
5.76803	0.927
5.80776	0.935
5.8475	0.93
5.88723	0.938
5.92697	0.923
5.9667	0.927
6.00643	0.908
6.04617	0.908
6.0859	0.918
6.12564	0.885
6.16537	0.859
6.20511	0.577
6.24484	0.228
6.28457	0.31
6.32431	0.626
6.36404	0.679
6.40378	0.847
6.44351	0.857
6.48325	0.845
6.52298	0.704
6.56272	0.731
6.60245	0.791
6.64218	0.391
6.68192	0.097
6.72165	0.18
6.76139	0.341
6.80112	0.26
6.84086	0.278
6.88059	0.33
6.92032	0.462
6.96006	0.507
6.99979	0.431
7.03953	0.296
7.07926	0.144
7.119	0.145
7.15873	0.285
7.19846	0.404
7.2382	0.409
7.27793	0.427
7.31767	0.55
7.3574	0.718
7.39714	0.759
7.43687	0.767
7.47661	0.724
7.51634	0.605
7.55607	0.56
7.59581	0.52
7.63554	0.51
7.67528	0.601
7.71501	0.237
7.75475	0.2
7.79448	0.379
7.83421	0.16
7.87395	0.099
7.91368	0.199
7.95342	0.25
7.99315	0.416
8.03289	0.553
8.07262	0.611
8.11235	0.643
8.15209	0.696
8.19182	0.726
8.23156	0.734
8.27129	0.53
8.31103	0.585
8.35076	0.726
8.3905	0.756
8.43023	0.759
8.46996	0.467
8.5097	0.442
8.54943	0.532
8.58917	0.651
8.6289	0.605
8.66864	0.293
8.70837	0.388
8.7481	0.507
8.78784	0.631
8.82757	0.734
8.86731	0.787
8.90704	0.8
8.94678	0.809
8.98651	0.825
9.02624	0.849
9.06598	0.859
9.10571	0.867
9.14545	0.86
9.18518	0.799
9.22492	0.696
9.26465	0.592
9.30439	0.733
9.34412	0.84
9.38385	0.867
9.42359	0.873
9.46332	0.875
9.50306	0.877
9.54279	0.875
9.58253	0.868
9.62226	0.85
9.66199	0.837
9.70173	0.726
9.74146	0.623
9.7812	0.747
9.82093	0.824
9.86067	0.852
9.9004	0.867
9.94013	0.873
9.97987	0.868
10.0196	0.875
10.0593	0.902
10.0991	0.897
10.1388	0.854
10.1785	0.781
10.2183	0.741
10.258	0.706
10.2977	0.756
10.3375	0.805
10.3772	0.749
10.4169	0.771
10.4567	0.842
10.4964	0.882
10.5361	0.897
10.5759	0.902
10.6156	0.902
10.6554	0.905
10.6951	0.915
10.7348	0.913
10.7746	0.918
10.8143	0.92
10.854	0.835
10.8938	0.825
10.9335	0.89
10.9732	0.903
11.013	0.892
11.0527	0.83
11.0924	0.855
11.1322	0.855
11.1719	0.734
11.2116	0.859
11.2514	0.917
11.2911	0.932
11.3308	0.941
11.3706	0.936
11.4103	0.948
11.45	0.955
11.4898	0.958
11.5295	0.953
11.5692	0.943
11.609	0.927
11.6487	0.883
11.6884	0.797
11.7282	0.824
11.7679	0.908
11.8076	0.933
11.8474	0.935
11.8871	0.928
11.9269	0.849
11.9666	0.699
12.0063	0.804
12.0461	0.849
12.0858	0.852
12.1255	0.847
12.1653	0.878
12.205	0.928
12.2447	0.948
12.2845	0.958
12.3242	0.965
12.3639	0.97
12.4037	0.971
12.4434	0.971
12.4831	0.975
12.5229	0.973
12.5626	0.975
12.6023	0.973
12.6421	0.971
12.6818	0.971
12.7215	0.966
12.7613	0.961
12.801	0.953
12.8407	0.928
12.8805	0.86
12.9202	0.573
12.9599	0.621
12.9997	0.739
13.0394	0.681
13.0791	0.379
13.1189	0.131
13.1586	0.174
13.1984	0.177
13.2381	0.222
13.2778	0.432
13.3176	0.61
13.3573	0.729
13.397	0.804
13.4368	0.845
13.4765	0.872
13.5162	0.89
13.556	0.897
13.5957	0.902
13.6354	0.91
13.6752	0.918
13.7149	0.92
13.7546	0.923
13.7944	0.92
13.8341	0.92
13.8738	0.923
13.9136	0.918
13.9533	0.922
13.993	0.935
14.0328	0.936
14.0725	0.935
14.1122	0.913
14.152	0.873
14.1917	0.772
14.2314	0.56
14.2712	0.306
14.3109	0.192
14.3506	0.208
14.3904	0.218
14.4301	0.197
14.4699	0.252
14.5096	0.409
14.5493	0.575
14.5891	0.684
14.6288	0.761
14.6685	0.797
14.7083	0.824
14.748	0.839
14.7877	0.845
14.8275	0.847
14.8672	0.849
14.9069	0.85
14.9467	0.852
14.9864	0.84
15.0261	0.809
15.0659	0.772
15.1056	0.766
15.1453	0.797
15.1851	0.819
15.2248	0.817
15.2645	0.817
15.3043	0.807
15.344	0.799
15.3837	0.796
15.4235	0.784
15.4632	0.777
15.5029	0.766
15.5427	0.751
15.5824	0.749
15.6221	0.746
15.6619	0.737
15.7016	0.726
15.7413	0.716
15.7811	0.688
15.8208	0.655
15.8606	0.621
15.9003	0.597
15.94	0.57
15.9798	0.56
