Infrared Spectrum: P-PHENYLAZO CARBANILIC ACID, n-PROPYL ESTER
Formula: C16 H17 N3 O2
CAS: 93311-68-3
State: SOLID (1.8 mg / 200 mg KBr)
Melting point: 146.5-147 C
Class: COBLENTZ
Instrument: Not specified, most likely a grating spectrometer.
Sampling: TRANSMISSION
Resolution: 4
Origin: CITRUS EXPERIMENT STATION, UNIVERSITY OF FLORIDA (G. EDWARDS)
MICROMETERS	TRANSMITTANCE
2.02	0.672
2.05316	0.68
2.08632	0.687
2.11948	0.688
2.15264	0.693
2.18579	0.697
2.21895	0.704
2.25211	0.712
2.28527	0.717
2.31843	0.717
2.35159	0.721
2.38475	0.724
2.41791	0.729
2.45107	0.737
2.48423	0.741
2.51738	0.75
2.55054	0.757
2.5837	0.758
2.61686	0.762
2.65002	0.762
2.68318	0.766
2.71634	0.766
2.7495	0.765
2.78266	0.764
2.81582	0.764
2.84897	0.762
2.88213	0.762
2.91529	0.76
2.94845	0.72
2.98161	0.448
3.01477	0.416
3.04793	0.588
3.08109	0.687
3.11425	0.708
3.14741	0.739
3.18056	0.716
3.21372	0.731
3.24688	0.719
3.28004	0.769
3.3132	0.735
3.34636	0.627
3.37952	0.681
3.41268	0.736
3.44584	0.745
3.479	0.777
3.51215	0.818
3.54531	0.818
3.57847	0.818
3.61163	0.837
3.64479	0.841
3.67795	0.848
3.71111	0.848
3.74427	0.854
3.77743	0.858
3.81059	0.858
3.84374	0.858
3.8769	0.864
3.91006	0.876
3.94322	0.88
3.97638	0.884
4.00954	0.885
4.0427	0.888
4.07586	0.898
4.10902	0.904
4.14218	0.9
4.17533	0.884
4.20849	0.897
4.24165	0.909
4.27481	0.916
4.30797	0.92
4.34113	0.917
4.37429	0.916
4.40745	0.924
4.44061	0.932
4.47377	0.932
4.50692	0.938
4.54008	0.938
4.57324	0.938
4.6064	0.944
4.63956	0.948
4.67272	0.95
4.70588	0.954
4.73904	0.961
4.7722	0.961
4.80536	0.961
4.83851	0.964
4.87167	0.968
4.90483	0.958
4.93799	0.97
4.97115	0.969
5.00431	0.969
5.03747	0.96
5.07063	0.96
5.10379	0.965
5.13695	0.97
5.1701	0.964
5.20326	0.968
5.23642	0.969
5.26958	0.985
5.30274	0.984
5.3359	0.994
5.36906	0.99
5.40222	0.99
5.43538	0.985
5.46854	0.978
5.50169	0.973
5.53485	0.976
5.56801	0.978
5.60117	0.974
5.63433	0.968
5.66749	0.936
5.70065	0.865
5.73381	0.731
5.76697	0.539
5.80013	0.38
5.83328	0.284
5.86644	0.4
5.8996	0.583
5.93276	0.79
5.96592	0.842
5.99908	0.888
6.03224	0.914
6.0654	0.913
6.09856	0.878
6.13172	0.782
6.16487	0.571
6.19803	0.291
6.23119	0.258
6.26435	0.504
6.29751	0.72
6.33067	0.77
6.36383	0.581
6.39699	0.201
6.43015	0.137
6.46331	0.241
6.49646	0.335
6.52962	0.547
6.56278	0.583
6.59594	0.545
6.6291	0.545
6.66226	0.651
6.69542	0.743
6.72858	0.74
6.76174	0.711
6.7949	0.601
6.82805	0.633
6.86121	0.727
6.89437	0.697
6.92753	0.516
6.96069	0.713
6.99385	0.78
7.02701	0.635
7.06017	0.448
7.09333	0.619
7.12649	0.768
7.15964	0.796
7.1928	0.794
7.22596	0.764
7.25912	0.802
7.29228	0.844
7.32544	0.864
7.3586	0.852
7.39176	0.86
7.42492	0.838
7.45808	0.743
7.49123	0.54
7.52439	0.471
7.55755	0.478
7.59071	0.427
7.62387	0.402
7.65703	0.419
7.69019	0.661
7.72335	0.727
7.75651	0.77
7.78967	0.8
7.82282	0.769
7.85598	0.657
7.88914	0.652
7.9223	0.664
7.95546	0.621
7.98862	0.475
8.02178	0.222
8.05494	0.073
8.0881	0.033
8.12126	0.079
8.15441	0.201
8.18757	0.346
8.22073	0.456
8.25389	0.553
8.28705	0.645
8.32021	0.711
8.35337	0.761
8.38653	0.79
8.41969	0.805
8.45285	0.836
8.486	0.85
8.51916	0.858
8.55232	0.876
8.58548	0.838
8.61864	0.661
8.6518	0.367
8.68496	0.444
8.71812	0.62
8.75128	0.552
8.78444	0.68
8.81759	0.797
8.85075	0.849
8.88391	0.873
8.91707	0.874
8.95023	0.862
8.98339	0.83
9.01655	0.79
9.04971	0.858
9.08287	0.889
9.11603	0.868
9.14918	0.858
9.18234	0.877
9.2155	0.849
9.24866	0.753
9.28182	0.492
9.31498	0.226
9.34814	0.202
9.3813	0.271
9.41446	0.402
9.44762	0.541
9.48077	0.66
9.51393	0.719
9.54709	0.743
9.58025	0.75
9.61341	0.77
9.64657	0.78
9.67973	0.766
9.71289	0.693
9.74605	0.657
9.77921	0.756
9.81236	0.781
9.84552	0.824
9.87868	0.849
9.91184	0.856
9.945	0.897
9.97816	0.878
10.0113	0.888
10.0445	0.92
10.0776	0.94
10.1108	0.93
10.144	0.933
10.1771	0.948
10.2103	0.95
10.2434	0.95
10.2766	0.944
10.3097	0.934
10.3429	0.925
10.3761	0.922
10.4092	0.933
10.4424	0.92
10.4755	0.885
10.5087	0.84
10.5419	0.828
10.575	0.858
10.6082	0.901
10.6413	0.93
10.6745	0.942
10.7077	0.941
10.7408	0.918
10.774	0.902
10.8071	0.905
10.8403	0.909
10.8735	0.888
10.9066	0.869
10.9398	0.88
10.9729	0.925
11.0061	0.95
11.0392	0.948
11.0724	0.96
11.1056	0.944
11.1387	0.948
11.1719	0.969
11.205	0.965
11.2382	0.962
11.2714	0.969
11.3045	0.97
11.3377	0.968
11.3708	0.958
11.404	0.942
11.4372	0.952
11.4703	0.965
11.5035	0.966
11.5366	0.964
11.5698	0.945
11.603	0.917
11.6361	0.85
11.6693	0.761
11.7024	0.672
11.7356	0.521
11.7687	0.44
11.8019	0.438
11.8351	0.5
11.8682	0.591
11.9014	0.668
11.9345	0.747
11.9677	0.812
12.0009	0.857
12.034	0.898
12.0672	0.9
12.1003	0.9
12.1335	0.908
12.1667	0.924
12.1998	0.936
12.233	0.952
12.2661	0.962
12.2993	0.96
12.3324	0.949
12.3656	0.937
12.3988	0.929
12.4319	0.928
12.4651	0.95
12.4982	0.96
12.5314	0.954
12.5646	0.948
12.5977	0.945
12.6309	0.933
12.664	0.929
12.6972	0.92
12.7304	0.926
12.7635	0.925
12.7967	0.922
12.8298	0.916
12.863	0.886
12.8962	0.828
12.9293	0.727
12.9625	0.641
12.9956	0.6
13.0288	0.584
13.0619	0.561
13.0951	0.577
13.1283	0.637
13.1614	0.701
13.1946	0.757
13.2277	0.825
13.2609	0.868
13.2941	0.901
13.3272	0.917
13.3604	0.932
13.3935	0.934
13.4267	0.94
13.4599	0.945
13.493	0.949
13.5262	0.938
13.5593	0.949
13.5925	0.944
13.6256	0.934
13.6588	0.926
13.692	0.914
13.7251	0.913
13.7583	0.909
13.7914	0.894
13.8246	0.853
13.8578	0.809
13.8909	0.752
13.9241	0.743
13.9572	0.745
13.9904	0.761
14.0236	0.788
14.0567	0.794
14.0899	0.808
14.123	0.804
14.1562	0.8
14.1894	0.798
14.2225	0.794
14.2557	0.79
14.2888	0.789
14.322	0.778
14.3551	0.772
14.3883	0.752
14.4215	0.704
14.4546	0.621
14.4878	0.533
14.5209	0.483
14.5541	0.496
14.5873	0.568
14.6204	0.664
14.6536	0.729
14.6867	0.789
14.7199	0.825
14.7531	0.865
14.7862	0.898
14.8194	0.916
14.8525	0.92
14.8857	0.918
14.9189	0.901
14.952	0.9
14.9852	0.914
