Infrared Spectrum: Benzofuranone, 2(3H)-, 3-(2,3-dibromopropyl)-3-phenyl,
Formula: C17 H14 Br2 O2
CAS: 93319-87-0
State: SOLUTION 3.5% (CS2 FOR 2.5-15 microns)
Class: COBLENTZ III
Instrument: PERKIN-ELMER 21 (GRATING)
Instrument parameters: FILTER AT ABOUT 10 MICRONS
Path length: 0.03 CM
Resolution: 2
Origin: ABBOTT LABORATORIES
1/CM	TRANSMITTANCE
667	0.7316
676	0.7187
685	0.6263
694	0.386
703	0.6286
712	0.7564
721	0.6352
730	0.5106
739	0.5739
748	0.099
757	0.4042
766	0.6518
775	0.7808
784	0.8184
793	0.8325
802	0.8405
811	0.8236
820	0.8158
829	0.7976
838	0.7974
847	0.7853
856	0.7745
865	0.7265
874	0.469
883	0.6688
892	0.7489
901	0.7041
910	0.6143
919	0.7227
928	0.6463
937	0.7428
946	0.7759
955	0.7812
964	0.7213
973	0.6594
982	0.6835
991	0.6721
1000	0.5524
1009	0.5254
1018	0.4601
1027	0.3498
1036	0.2091
1045	0.3753
1054	0.2285
1063	0.3265
1072	0.5331
1081	0.6299
1090	0.6931
1099	0.7035
1108	0.669
1117	0.3348
1126	0.4639
1135	0.6002
1144	0.6123
1153	0.6138
1162	0.5719
1171	0.568
1180	0.6095
1189	0.6697
1198	0.7032
1207	0.6766
1216	0.4276
1225	0.2432
1234	0.5477
1243	0.6985
1252	0.7168
1261	0.7251
1270	0.6788
1279	0.6173
1288	0.6359
1297	0.7279
1306	0.7072
1315	0.6896
1324	0.715
1333	0.7858
1342	0.7984
1351	0.8046
1360	0.818
1369	0.8313
1378	0.8475
1387	0.8471
1396	0.8321
1405	0.7989
1414	0.7941
1423	0.7946
1432	0.793
1441	0.7895
1450	0.7861
1459	0.7833
1468	0.782
1477	0.781
1486	0.7798
1495	0.7772
1504	0.7716
1513	0.7643
1522	0.7579
1531	0.7515
1540	0.7452
1549	0.7389
1558	0.7328
1567	0.7268
1576	0.7209
1585	0.7152
1594	0.7098
1603	0.6844
1612	0.6088
1621	0.7546
1630	0.849
1639	0.8497
1648	0.8464
1657	0.8428
1666	0.8403
1675	0.8407
1684	0.8422
1693	0.846
1702	0.8458
1711	0.8442
1720	0.8417
1729	0.8383
1738	0.825
1747	0.8006
1756	0.77
1765	0.7386
1774	0.6916
1783	0.439
1792	0.0695
1801	0.0589
1810	0.2411
1819	0.4762
1828	0.7001
1837	0.8047
1846	0.8254
1855	0.8387
1864	0.845
1873	0.8494
1882	0.8514
1891	0.854
1900	0.8624
1909	0.8694
1918	0.8661
1927	0.848
1936	0.8492
1945	0.8621
1954	0.8742
1963	0.8854
1972	0.891
1981	0.8918
1990	0.8915
1999	0.891
2008	0.8906
2017	0.8901
2026	0.8907
2035	0.8912
2044	0.8918
2053	0.8926
2062	0.8935
2071	0.8964
2080	0.907
2089	0.9185
2098	0.9351
2107	0.9391
2116	0.9377
2125	0.9354
2134	0.9335
2143	0.9319
2152	0.9312
2161	0.9304
2170	0.9283
2179	0.9258
2188	0.9187
2197	0.9087
2206	0.9048
2215	0.9035
2224	0.9035
2233	0.9045
2242	0.906
2251	0.9081
2260	0.9085
2269	0.908
2278	0.9061
2287	0.9027
2296	0.8999
2305	0.8972
2314	0.8948
2323	0.8932
2332	0.8922
2341	0.8911
2350	0.8904
2359	0.8902
2368	0.89
2377	0.8897
2386	0.8892
2395	0.8887
2404	0.8883
2413	0.8882
2422	0.8881
2431	0.8879
2440	0.8891
2449	0.8907
2458	0.891
2467	0.8913
2476	0.8915
2485	0.8917
2494	0.892
2503	0.8925
2512	0.893
2521	0.8935
2530	0.8938
2539	0.8937
2548	0.8936
2557	0.8934
2566	0.8932
2575	0.893
2584	0.8929
2593	0.8926
2602	0.8922
2611	0.8919
2620	0.8916
2629	0.8913
2638	0.891
2647	0.8907
2656	0.8904
2665	0.8901
2674	0.8898
2683	0.8896
2692	0.8894
2701	0.8893
2710	0.8891
2719	0.889
2728	0.8888
2737	0.8886
2746	0.8885
2755	0.8884
2764	0.8882
2773	0.8874
2782	0.8859
2791	0.883
2800	0.8786
2809	0.8743
2818	0.8713
2827	0.8683
2836	0.8652
2845	0.8616
2854	0.858
2863	0.8541
2872	0.8503
2881	0.846
2890	0.8415
2899	0.8406
2908	0.8407
2917	0.8416
2926	0.8445
2935	0.8477
2944	0.8516
2953	0.8547
2962	0.8567
2971	0.8572
2980	0.8557
2989	0.8361
2998	0.8151
3007	0.7943
3016	0.7705
3025	0.7599
3034	0.7582
3043	0.7582
3052	0.7669
3061	0.7949
3070	0.8231
3079	0.851
3088	0.8752
3097	0.8787
3106	0.8821
3115	0.8849
3124	0.8867
3133	0.8878
3142	0.8885
3151	0.8884
3160	0.8884
3169	0.888
3178	0.8875
3187	0.887
3196	0.8865
3205	0.886
3214	0.8854
3223	0.8849
3232	0.8844
3241	0.8839
3250	0.8835
3259	0.8831
3268	0.8826
3277	0.8826
3286	0.8825
3295	0.8825
3304	0.8824
3313	0.8824
3322	0.8826
3331	0.8827
3340	0.8829
3349	0.8831
3358	0.8834
3367	0.8839
3376	0.8845
3385	0.8851
3394	0.8857
3403	0.8863
3412	0.8868
3421	0.8872
3430	0.8875
3439	0.8877
3448	0.8879
3457	0.8882
3466	0.888
3475	0.8872
3484	0.8864
3493	0.8855
3502	0.8848
3511	0.885
3520	0.8858
3529	0.8866
3538	0.8873
3547	0.8881
3556	0.8893
3565	0.8907
3574	0.8923
3583	0.8937
3592	0.8951
3601	0.8963
3610	0.8974
3619	0.8986
3628	0.8998
3637	0.9009
3646	0.9013
3655	0.9019
3664	0.9024
3673	0.9029
3682	0.9034
3691	0.9038
3700	0.9039
3709	0.9038
3718	0.9038
3727	0.9037
3736	0.9033
3745	0.9026
3754	0.9018
3763	0.9012
3772	0.9005
3781	0.8998
3790	0.8991
3799	0.8987
3808	0.8981
3817	0.8975
3826	0.8971
3835	0.8965
3844	0.8962
3853	0.8959
3862	0.8957
3871	0.8954
3880	0.8952
3889	0.8952
3898	0.8952
3907	0.8953
3916	0.8953
3925	0.8954
3934	0.8954
3943	0.8954
3952	0.8955
3961	0.8956
3970	0.8956
3979	0.8957
3988	0.8957
3997	0.8958
