Infrared Spectrum: 5,8-DIHYDRO-2-PHENYL-5,8-METHANO-1,4-NAPHTHOQUINONE
Formula: C17 H12 O2
CAS: 93327-67-4
State: SOLID (KBr PRESSING)
Melting point: 116-118 C
Class: COBLENTZ
Instrument: Not specified, most likely a prism, grating, or hybrid spectrometer.
Sampling: TRANSMISSION
Resolution: 4
Origin: EASTMAN KODAK COMPANY, RESEARCH LABORATORIES, ROCHESTER, N.Y.
MICROMETERS	TRANSMITTANCE
2.007	0.485
2.04715	0.483
2.0873	0.49
2.12745	0.503
2.1676	0.516
2.20776	0.521
2.24791	0.529
2.28806	0.531
2.32821	0.534
2.36836	0.536
2.40851	0.541
2.44866	0.543
2.48881	0.548
2.52897	0.556
2.56912	0.566
2.60927	0.579
2.64942	0.577
2.68957	0.589
2.72972	0.592
2.76987	0.582
2.81002	0.539
2.85018	0.513
2.89033	0.5
2.93048	0.496
2.97063	0.528
3.01078	0.567
3.05093	0.543
3.09108	0.533
3.13123	0.581
3.17139	0.6
3.21154	0.615
3.25169	0.567
3.29184	0.39
3.33199	0.377
3.37214	0.408
3.41229	0.458
3.45244	0.592
3.4926	0.556
3.53275	0.645
3.5729	0.672
3.61305	0.678
3.6532	0.692
3.69335	0.69
3.7335	0.698
3.77365	0.698
3.81381	0.7
3.85396	0.71
3.89411	0.713
3.93426	0.718
3.97441	0.728
4.01456	0.723
4.05471	0.733
4.09486	0.731
4.13502	0.74
4.17517	0.743
4.21532	0.733
4.25547	0.756
4.29562	0.768
4.33577	0.766
4.37592	0.758
4.41607	0.756
4.45623	0.753
4.49638	0.759
4.53653	0.764
4.57668	0.764
4.61683	0.766
4.65698	0.771
4.69713	0.776
4.73728	0.768
4.77744	0.774
4.81759	0.793
4.85774	0.791
4.89789	0.794
4.93804	0.801
4.97819	0.794
5.01834	0.783
5.05849	0.764
5.09865	0.773
5.1388	0.791
5.17895	0.793
5.2191	0.783
5.25925	0.781
5.2994	0.779
5.33955	0.796
5.3797	0.799
5.41986	0.791
5.46001	0.798
5.50016	0.784
5.54031	0.774
5.58046	0.811
5.62061	0.798
5.66076	0.783
5.70091	0.801
5.74107	0.801
5.78122	0.804
5.82137	0.789
5.86152	0.776
5.90167	0.761
5.94182	0.72
5.98197	0.711
6.02212	0.437
6.06228	0.104
6.10243	0.059
6.14258	0.097
6.18273	0.226
6.22288	0.314
6.26303	0.291
6.30318	0.173
6.34333	0.216
6.38349	0.259
6.42364	0.291
6.46379	0.36
6.50394	0.508
6.54409	0.612
6.58424	0.649
6.62439	0.675
6.66454	0.571
6.7047	0.395
6.74485	0.524
6.785	0.649
6.82515	0.7
6.8653	0.718
6.90545	0.642
6.9456	0.385
6.98575	0.66
7.02591	0.728
7.06606	0.736
7.10621	0.72
7.14636	0.713
7.18651	0.721
7.22666	0.733
7.26681	0.718
7.30696	0.584
7.34712	0.548
7.38727	0.668
7.42742	0.617
7.46757	0.394
7.50772	0.124
7.54787	0.18
7.58802	0.19
7.62817	0.228
7.66833	0.504
7.70848	0.503
7.74863	0.271
7.78878	0.155
7.82893	0.359
7.86908	0.437
7.90923	0.213
7.94938	0.064
7.98954	0.155
8.02969	0.45
8.06984	0.226
8.10999	0.559
8.15014	0.612
8.19029	0.619
8.23044	0.24
8.27059	0.36
8.31075	0.375
8.3509	0.231
8.39105	0.496
8.4312	0.579
8.47135	0.652
8.5115	0.673
8.55165	0.688
8.5918	0.69
8.63196	0.683
8.67211	0.688
8.71226	0.614
8.75241	0.629
8.79256	0.692
8.83271	0.715
8.87286	0.721
8.91301	0.723
8.95317	0.668
8.99332	0.569
9.03347	0.703
9.07362	0.668
9.11377	0.326
9.15392	0.448
9.19407	0.65
9.23422	0.483
9.27437	0.405
9.31453	0.551
9.35468	0.655
9.39483	0.708
9.43498	0.73
9.47513	0.738
9.51528	0.74
9.55543	0.731
9.59558	0.665
9.63574	0.346
9.67589	0.571
9.71604	0.658
9.75619	0.682
9.79634	0.667
9.83649	0.665
9.87664	0.73
9.91679	0.622
9.95695	0.485
9.9971	0.561
10.0372	0.374
10.0774	0.491
10.1176	0.624
10.1577	0.715
10.1979	0.738
10.238	0.754
10.2782	0.766
10.3183	0.753
10.3585	0.662
10.3986	0.713
10.4388	0.75
10.4789	0.768
10.5191	0.779
10.5592	0.783
10.5994	0.784
10.6395	0.771
10.6797	0.69
10.7198	0.607
10.76	0.665
10.8001	0.509
10.8403	0.465
10.8804	0.572
10.9206	0.519
10.9607	0.203
11.0009	0.19
11.041	0.445
11.0812	0.577
11.1213	0.642
11.1615	0.672
11.2016	0.67
11.2418	0.677
11.2819	0.723
11.3221	0.746
11.3622	0.756
11.4024	0.769
11.4425	0.769
11.4827	0.726
11.5228	0.483
11.563	0.501
11.6031	0.544
11.6433	0.637
11.6834	0.703
11.7236	0.745
11.7638	0.753
11.8039	0.768
11.8441	0.769
11.8842	0.725
11.9244	0.543
11.9645	0.448
12.0047	0.609
12.0448	0.587
12.085	0.488
12.1251	0.599
12.1653	0.678
12.2054	0.735
12.2456	0.75
12.2857	0.763
12.3259	0.763
12.366	0.759
12.4062	0.735
12.4463	0.67
12.4865	0.465
12.5266	0.276
12.5668	0.407
12.6069	0.627
12.6471	0.63
12.6872	0.541
12.7274	0.481
12.7675	0.21
12.8077	0.089
12.8478	0.11
12.888	0.342
12.9281	0.516
12.9683	0.615
13.0084	0.596
13.0486	0.504
13.0887	0.584
13.1289	0.692
13.169	0.735
13.2092	0.766
13.2493	0.778
13.2895	0.778
13.3297	0.776
13.3698	0.768
13.41	0.751
13.4501	0.697
13.4903	0.605
13.5304	0.38
13.5706	0.135
13.6107	0.066
13.6509	0.197
13.691	0.415
13.7312	0.574
13.7713	0.625
13.8115	0.63
13.8516	0.533
13.8918	0.412
13.9319	0.311
13.9721	0.165
14.0122	0.104
14.0524	0.092
14.0925	0.092
14.1327	0.099
14.1728	0.15
14.213	0.22
14.2531	0.21
14.2933	0.119
14.3334	0.109
14.3736	0.139
14.4137	0.24
14.4539	0.316
14.494	0.377
14.5342	0.432
14.5743	0.506
14.6145	0.572
14.6546	0.609
14.6948	0.639
14.7349	0.645
14.7751	0.657
14.8152	0.655
14.8554	0.673
14.8955	0.678
14.9357	0.678
14.9759	0.649
15.016	0.64
15.0562	0.658
15.0963	0.662
15.1365	0.668
15.1766	0.672
15.2168	0.678
15.2569	0.673
15.2971	0.67
15.3372	0.668
15.3774	0.663
15.4175	0.662
15.4577	0.66
15.4978	0.658
15.538	0.658
15.5781	0.658
15.6183	0.653
15.6584	0.649
15.6986	0.64
15.7387	0.637
15.7789	0.632
15.819	0.627
15.8592	0.624
15.8993	0.622
15.9395	0.614
15.9796	0.599
