Infrared Spectrum: 2,6-Methano-1,4-benzodioxocin-5(6H)-one, 2,3-dihydro-6-phenyl-,
Formula: C17 H14 O3
CAS: 93321-57-4
State: SOLUTION 7% (CHCl3 FOR 2.5-12.5 microns)
Class: COBLENTZ
Instrument: PERKIN-ELMER 21 (GRATING)
Instrument parameters: FILTER AT ABOUT 10 MICRONS
Path length: 0.01 CM
Resolution: 2
Origin: ABBOTT LABORATORIES
1/CM	TRANSMITTANCE
806	1.0055
814	0.913
822	0.8356
830	0.8845
838	0.8898
846	0.8957
854	0.8422
862	0.8456
870	0.8394
878	0.7104
886	0.7456
894	0.8599
902	0.8534
910	0.8116
918	0.8385
926	0.7781
934	0.6779
942	0.732
950	0.6713
958	0.6616
966	0.6667
974	0.5841
982	0.6171
990	0.6715
998	0.5011
1006	0.7845
1014	0.8437
1022	0.8339
1030	0.7753
1038	0.7677
1046	0.8181
1054	0.814
1062	0.7323
1070	0.6946
1078	0.7172
1086	0.7428
1094	0.6166
1102	0.4036
1110	0.5725
1118	0.5123
1126	0.1397
1134	0.1613
1142	0.2217
1150	0.5493
1158	0.7366
1166	0.7713
1174	0.6948
1182	0.6478
1190	0.7433
1198	0.6681
1206	0.5785
1214	0.5157
1222	0.4537
1230	0.3924
1238	0.3319
1246	0.276
1254	0.3383
1262	0.4699
1270	0.5533
1278	0.4685
1286	0.5981
1294	0.4718
1302	0.4381
1310	0.7654
1318	0.8062
1326	0.7984
1334	0.6938
1342	0.7131
1350	0.8347
1358	0.8246
1366	0.8231
1374	0.8412
1382	0.8274
1390	0.6832
1398	0.5874
1406	0.7461
1414	0.8574
1422	0.8617
1430	0.8262
1438	0.577
1446	0.489
1454	0.4052
1462	0.5721
1470	0.7077
1478	0.421
1486	0.2219
1494	0.6026
1502	0.7197
1510	0.8488
1518	0.8806
1526	0.8935
1534	0.8912
1542	0.886
1550	0.8793
1558	0.8675
1566	0.841
1574	0.7965
1582	0.6295
1590	0.6668
1598	0.7486
1606	0.6317
1614	0.7329
1622	0.8423
1630	0.8462
1638	0.8482
1646	0.8534
1654	0.8628
1662	0.8652
1670	0.8555
1678	0.8378
1686	0.8157
1694	0.7864
1702	0.7494
1710	0.6915
1718	0.4766
1726	0.2385
1734	0.1197
1742	0.1124
1750	0.1587
1758	0.4394
1766	0.6835
1774	0.7953
1782	0.8427
1790	0.8535
1798	0.8503
1806	0.854
1814	0.8652
1822	0.8755
1830	0.8819
1838	0.8873
1846	0.8902
1854	0.8905
1862	0.8896
1870	0.8877
1878	0.8855
1886	0.8838
1894	0.8834
1902	0.8835
1910	0.884
1918	0.8854
1926	0.8872
1934	0.8849
1942	0.8772
1950	0.8752
1958	0.8821
1966	0.8888
1974	0.8964
1982	0.9032
1990	0.9044
1998	0.9046
2006	0.9044
2014	0.9051
2022	0.9064
2030	0.908
2038	0.9082
2046	0.9082
2054	0.9078
2062	0.9073
2070	0.9071
2078	0.9073
2086	0.9075
2094	0.9082
2102	0.909
2110	0.9097
2118	0.9096
2126	0.9095
2134	0.9094
2142	0.9091
2150	0.9089
2158	0.9086
2166	0.9083
2174	0.9079
2182	0.9075
2190	0.9071
2198	0.9067
2206	0.9064
2214	0.9061
2222	0.906
2230	0.9058
2238	0.9057
2246	0.9056
2254	0.9054
2262	0.9054
2270	0.9059
2278	0.9063
2286	0.9067
2294	0.9071
2302	0.9081
2310	0.911
2318	0.914
2326	0.9155
2334	0.9162
2342	0.9162
2350	0.9158
2358	0.9155
2366	0.9151
2374	0.9147
2382	0.9136
2390	0.912
2398	0.9092
2406	0.906
2414	0.9041
2422	0.9028
2430	0.903
2438	0.9032
2446	0.9035
2454	0.9036
2462	0.9037
2470	0.9037
2478	0.9038
2486	0.9039
2494	0.9039
2502	0.9039
2510	0.9038
2518	0.9038
2526	0.9038
2534	0.9037
2542	0.9036
2550	0.9036
2558	0.9035
2566	0.9035
2574	0.9038
2582	0.904
2590	0.9044
2598	0.9048
2606	0.9052
2614	0.9056
2622	0.9062
2630	0.9066
2638	0.9071
2646	0.9071
2654	0.907
2662	0.907
2670	0.9065
2678	0.906
2686	0.9053
2694	0.9046
2702	0.9039
2710	0.9029
2718	0.9019
2726	0.9008
2734	0.8997
2742	0.899
2750	0.8993
2758	0.8996
2766	0.8999
2774	0.9
2782	0.8998
2790	0.8996
2798	0.8989
2806	0.8968
2814	0.8943
2822	0.8911
2830	0.8879
2838	0.8842
2846	0.88
2854	0.8758
2862	0.8715
2870	0.8668
2878	0.8622
2886	0.8576
2894	0.8501
2902	0.8414
2910	0.8285
2918	0.8066
2926	0.7863
2934	0.7748
2942	0.7752
2950	0.7794
2958	0.7845
2966	0.7864
2974	0.7825
2982	0.7691
2990	0.758
2998	0.7562
3006	0.7569
3014	0.7609
3022	0.7716
3030	0.7835
3038	0.7908
3046	0.7927
3054	0.7936
3062	0.7986
3070	0.8228
3078	0.8487
3086	0.8694
3094	0.8799
3102	0.8832
3110	0.8862
3118	0.8882
3126	0.8896
3134	0.8909
3142	0.8914
3150	0.8915
3158	0.8916
3166	0.8917
3174	0.8917
3182	0.8916
3190	0.8915
3198	0.8914
3206	0.8913
3214	0.8912
3222	0.8911
3230	0.891
3238	0.8909
3246	0.8907
3254	0.8905
3262	0.8903
3270	0.8901
3278	0.89
3286	0.8898
3294	0.8896
3302	0.8895
3310	0.8892
3318	0.8889
3326	0.8887
3334	0.8884
3342	0.8882
3350	0.8879
3358	0.8877
3366	0.8874
3374	0.8871
3382	0.8868
3390	0.8864
3398	0.886
3406	0.8855
3414	0.8851
3422	0.8848
3430	0.8844
3438	0.8854
3446	0.8866
3454	0.8876
3462	0.8886
3470	0.8894
3478	0.8899
3486	0.8903
3494	0.8907
3502	0.8912
3510	0.8913
3518	0.8915
3526	0.8917
3534	0.8919
3542	0.8921
3550	0.8922
3558	0.8924
3566	0.8926
3574	0.8927
3582	0.8926
3590	0.8926
3598	0.8925
3606	0.8925
3614	0.8924
3622	0.8923
3630	0.8923
3638	0.8922
3646	0.8921
3654	0.8921
3662	0.892
3670	0.892
3678	0.8919
3686	0.8919
3694	0.8918
3702	0.8917
3710	0.8916
3718	0.8915
3726	0.8914
3734	0.8913
3742	0.8913
3750	0.8911
3758	0.8911
3766	0.891
3774	0.8909
3782	0.8909
3790	0.8908
3798	0.8907
3806	0.8907
3814	0.8906
3822	0.8906
3830	0.8905
3838	0.8904
3846	0.8904
3854	0.8903
3862	0.8903
3870	0.8905
3878	0.8906
3886	0.8907
3894	0.8908
3902	0.891
3910	0.8911
3918	0.8912
3926	0.8914
3934	0.8915
3942	0.8916
3950	0.8918
3958	0.8919
3966	0.892
3974	0.8921
3982	0.8923
3990	0.8924
3998	0.8925
