Infrared Spectrum: 2-(O-PHENYLPHENOXY)-3-METHYL PYRAZINE
Formula: C17 H14 N2 O
CAS: 93323-45-6
State: LIQUID
Class: COBLENTZ
Instrument: Not specified, most likely a prism, grating, or hybrid spectrometer.
Sampling: TRANSMISSION
Path length: 0.0015 CM
Resolution: 4
Origin: WYANDOTTE CHEMICALS CORP., WYANDOTTE, MICHIGAN, USA
MICROMETERS	TRANSMITTANCE
2.046	0.98
2.08581	0.963
2.12562	0.968
2.16543	0.97
2.20525	0.961
2.24506	0.951
2.28487	0.953
2.32468	0.958
2.36449	0.951
2.4043	0.905
2.44411	0.936
2.48392	0.95
2.52374	0.948
2.56355	0.96
2.60336	0.963
2.64317	0.968
2.68298	0.973
2.72279	0.936
2.7626	0.941
2.80241	0.948
2.84223	0.931
2.88204	0.913
2.92185	0.908
2.96166	0.901
3.00147	0.901
3.04128	0.903
3.08109	0.9
3.12091	0.891
3.16072	0.876
3.20053	0.831
3.24034	0.63
3.28015	0.254
3.31996	0.545
3.35977	0.695
3.39958	0.72
3.4394	0.765
3.47921	0.863
3.51902	0.873
3.55883	0.92
3.59864	0.946
3.63845	0.936
3.67826	0.93
3.71808	0.951
3.75789	0.963
3.7977	0.965
3.83751	0.961
3.87732	0.958
3.91713	0.951
3.95694	0.936
3.99675	0.94
4.03657	0.938
4.07638	0.921
4.11619	0.898
4.156	0.893
4.19581	0.92
4.23562	0.91
4.27543	0.911
4.31524	0.92
4.35506	0.931
4.39487	0.94
4.43468	0.931
4.47449	0.94
4.5143	0.946
4.55411	0.971
4.59392	0.966
4.63374	0.953
4.67355	0.943
4.71336	0.945
4.75317	0.95
4.79298	0.958
4.83279	0.96
4.8726	0.94
4.91241	0.938
4.95223	0.938
4.99204	0.903
5.03185	0.916
5.07166	0.901
5.11147	0.886
5.15128	0.828
5.19109	0.772
5.2309	0.841
5.27072	0.788
5.31053	0.79
5.35034	0.798
5.39015	0.875
5.42996	0.92
5.46977	0.896
5.50958	0.851
5.5494	0.775
5.58921	0.79
5.62902	0.85
5.66883	0.85
5.70864	0.846
5.74845	0.846
5.78826	0.865
5.82807	0.846
5.86789	0.81
5.9077	0.785
5.94751	0.783
5.98732	0.792
6.02713	0.803
6.06694	0.783
6.10675	0.745
6.14657	0.638
6.18638	0.542
6.22619	0.477
6.266	0.371
6.30581	0.377
6.34562	0.549
6.38543	0.575
6.42524	0.347
6.46506	0.071
6.50487	0.149
6.54468	0.349
6.58449	0.43
6.6243	0.106
6.66411	0.42
6.70392	0.134
6.74373	0.056
6.78355	0.236
6.82336	0.209
6.86317	0.133
6.90298	0.066
6.94279	0.033
6.9826	0.043
7.02241	0.049
7.06223	0.036
7.10204	0.033
7.14185	0.033
7.18166	0.034
7.22147	0.043
7.26128	0.041
7.30109	0.163
7.3409	0.379
7.38072	0.482
7.42053	0.532
7.46034	0.482
7.50015	0.291
7.53996	0.234
7.57977	0.259
7.61958	0.164
7.65939	0.041
7.69921	0.038
7.73902	0.036
7.77883	0.033
7.81864	0.038
7.85845	0.063
7.89826	0.046
7.93807	0.034
7.97789	0.036
8.0177	0.091
8.05751	0.281
8.09732	0.424
8.13713	0.366
8.17694	0.181
8.21675	0.091
8.25656	0.034
8.29638	0.031
8.33619	0.034
8.376	0.046
8.41581	0.033
8.45562	0.031
8.49543	0.059
8.53524	0.154
8.57506	0.069
8.61487	0.031
8.65468	0.038
8.69449	0.089
8.7343	0.232
8.77411	0.422
8.81392	0.554
8.85373	0.594
8.89355	0.58
8.93336	0.399
8.97317	0.198
9.01298	0.271
9.05279	0.547
9.0926	0.663
9.13241	0.703
9.17222	0.718
9.21204	0.633
9.25185	0.47
9.29166	0.391
9.33147	0.582
9.37128	0.675
9.41109	0.7
9.4509	0.635
9.49072	0.444
9.53053	0.247
9.57034	0.386
9.61015	0.43
9.64996	0.381
9.68977	0.41
9.72958	0.524
9.76939	0.607
9.80921	0.643
9.84902	0.485
9.88883	0.118
9.92864	0.414
9.96845	0.638
10.0083	0.603
10.0481	0.643
10.0879	0.63
10.1277	0.565
10.1675	0.447
10.2073	0.276
10.2471	0.239
10.2869	0.304
10.3268	0.404
10.3666	0.499
10.4064	0.57
10.4462	0.618
10.486	0.645
10.5258	0.64
10.5656	0.607
10.6054	0.567
10.6452	0.584
10.6851	0.663
10.7249	0.738
10.7647	0.753
10.8045	0.725
10.8443	0.653
10.8841	0.57
10.9239	0.505
10.9637	0.519
11.0035	0.51
11.0434	0.252
11.0832	0.149
11.123	0.386
11.1628	0.595
11.2026	0.69
11.2424	0.737
11.2822	0.748
11.322	0.745
11.3618	0.728
11.4017	0.687
11.4415	0.625
11.4813	0.545
11.5211	0.465
11.5609	0.415
11.6007	0.372
11.6405	0.339
11.6803	0.312
11.7201	0.259
11.76	0.202
11.7998	0.159
11.8396	0.144
11.8794	0.149
11.9192	0.196
11.959	0.274
11.9988	0.314
12.0386	0.212
12.0785	0.254
12.1183	0.445
12.1581	0.608
12.1979	0.67
12.2377	0.702
12.2775	0.708
12.3173	0.698
12.3571	0.645
12.3969	0.547
12.4368	0.329
12.4766	0.188
12.5164	0.188
12.5562	0.284
12.596	0.412
12.6358	0.51
12.6756	0.55
12.7154	0.53
12.7552	0.43
12.7951	0.274
12.8349	0.171
12.8747	0.109
12.9145	0.079
12.9543	0.076
12.9941	0.109
13.0339	0.164
13.0737	0.186
13.1135	0.158
13.1534	0.178
13.1932	0.193
13.233	0.156
13.2728	0.086
13.3126	0.044
13.3524	0.041
13.3922	0.038
13.432	0.038
13.4718	0.044
13.5117	0.049
13.5515	0.061
13.5913	0.074
13.6311	0.079
13.6709	0.093
13.7107	0.141
13.7505	0.256
13.7903	0.397
13.8301	0.487
13.87	0.512
13.9098	0.485
13.9496	0.465
13.9894	0.462
14.0292	0.472
14.069	0.479
14.1088	0.444
14.1486	0.326
14.1885	0.207
14.2283	0.126
14.2681	0.084
14.3079	0.076
14.3477	0.079
14.3875	0.098
14.4273	0.154
14.4671	0.269
14.5069	0.414
14.5468	0.537
14.5866	0.623
14.6264	0.67
14.6662	0.707
14.706	0.722
14.7458	0.74
14.7856	0.747
14.8254	0.752
14.8652	0.755
14.9051	0.753
14.9449	0.748
14.9847	0.737
15.0245	0.712
15.0643	0.703
15.1041	0.717
15.1439	0.742
15.1837	0.748
15.2235	0.753
15.2634	0.752
15.3032	0.748
15.343	0.742
15.3828	0.74
15.4226	0.735
15.4624	0.73
15.5022	0.73
15.542	0.732
15.5818	0.733
15.6217	0.73
15.6615	0.717
15.7013	0.7
15.7411	0.682
15.7809	0.667
15.8207	0.667
15.8605	0.667
15.9003	0.673
15.9401	0.685
15.98	0.69
