Infrared Spectrum: 6-METHYL PICOLINIC ACID
Formula: C7 H7 N O2
CAS: 934-60-1
State: SOLID (MINERAL OIL MULL)
Class: COBLENTZ
Instrument: Not specified, most likely a prism, grating, or hybrid spectrometer.
Sampling: TRANSMISSION
Resolution: 4
Origin: DOW CHEMICAL COMPANY
MICROMETERS	TRANSMITTANCE
2.021	0.308
2.06203	0.32
2.10307	0.328
2.1441	0.34
2.18513	0.351
2.22617	0.359
2.2672	0.361
2.30823	0.366
2.34927	0.38
2.3903	0.393
2.43133	0.405
2.47237	0.422
2.5134	0.434
2.55444	0.445
2.59547	0.457
2.6365	0.472
2.67754	0.486
2.71857	0.5
2.7596	0.5
2.80064	0.476
2.84167	0.402
2.8827	0.26
2.92374	0.273
2.96477	0.248
3.0058	0.243
3.04684	0.275
3.08787	0.325
3.1289	0.383
3.16994	0.39
3.21097	0.347
3.252	0.273
3.29304	0.215
3.33407	0.172
3.3751	0.077
3.41614	0.042
3.45717	0.061
3.4982	0.083
3.53924	0.287
3.58027	0.357
3.62131	0.404
3.66234	0.421
3.70337	0.452
3.74441	0.481
3.78544	0.498
3.82647	0.518
3.86751	0.539
3.90854	0.554
3.94957	0.563
3.99061	0.58
4.03164	0.595
4.07267	0.601
4.11371	0.611
4.15474	0.616
4.19577	0.609
4.23681	0.619
4.27784	0.647
4.31887	0.664
4.35991	0.672
4.40094	0.679
4.44197	0.679
4.48301	0.671
4.52404	0.664
4.56507	0.674
4.60611	0.69
4.64714	0.705
4.68818	0.717
4.72921	0.722
4.77024	0.726
4.81128	0.714
4.85231	0.715
4.89334	0.714
4.93438	0.729
4.97541	0.717
5.01644	0.676
5.05748	0.672
5.09851	0.72
5.13954	0.741
5.18058	0.758
5.22161	0.772
5.26264	0.773
5.30368	0.779
5.34471	0.789
5.38574	0.789
5.42678	0.792
5.46781	0.792
5.50884	0.785
5.54988	0.773
5.59091	0.765
5.63194	0.756
5.67298	0.736
5.71401	0.702
5.75505	0.66
5.79608	0.613
5.83711	0.556
5.87815	0.482
5.91918	0.332
5.96021	0.188
6.00125	0.186
6.04228	0.174
6.08331	0.371
6.12435	0.364
6.16538	0.172
6.20641	0.083
6.24745	0.248
6.28848	0.33
6.32951	0.398
6.37055	0.452
6.41158	0.503
6.45261	0.51
6.49365	0.498
6.53468	0.428
6.57571	0.378
6.61675	0.407
6.65778	0.503
6.69881	0.515
6.73985	0.472
6.78088	0.349
6.82192	0.224
6.86295	0.258
6.90398	0.357
6.94502	0.484
6.98605	0.52
7.02708	0.484
7.06812	0.422
7.10915	0.361
7.15018	0.28
7.19122	0.135
7.23225	0.083
7.27328	0.167
7.31432	0.248
7.35535	0.313
7.39638	0.261
7.43742	0.344
7.47845	0.462
7.51948	0.522
7.56052	0.544
7.60155	0.523
7.64258	0.469
7.68362	0.351
7.72465	0.215
7.76568	0.272
7.80672	0.412
7.84775	0.472
7.88879	0.511
7.92982	0.527
7.97085	0.559
8.01189	0.577
8.05292	0.582
8.09395	0.592
8.13499	0.611
8.17602	0.621
8.21705	0.631
8.25809	0.647
8.29912	0.654
8.34015	0.655
8.38119	0.613
8.42222	0.594
8.46325	0.643
8.50429	0.66
8.54532	0.654
8.58635	0.597
8.62739	0.489
8.66842	0.431
8.70945	0.554
8.75049	0.604
8.79152	0.631
8.83256	0.643
8.87359	0.654
8.91462	0.655
8.95566	0.66
8.99669	0.664
9.03772	0.662
9.07876	0.659
9.11979	0.642
9.16082	0.64
9.20186	0.652
9.24289	0.65
9.28392	0.636
9.32496	0.621
9.36599	0.602
9.40702	0.573
9.44806	0.539
9.48909	0.523
9.53012	0.559
9.57116	0.59
9.61219	0.607
9.65322	0.619
9.69426	0.621
9.73529	0.623
9.77632	0.621
9.81736	0.594
9.85839	0.551
9.89943	0.493
9.94046	0.433
9.98149	0.431
10.0225	0.547
10.0636	0.614
10.1046	0.662
10.1456	0.691
10.1867	0.71
10.2277	0.722
10.2687	0.738
10.3098	0.75
10.3508	0.756
10.3918	0.761
10.4329	0.76
10.4739	0.756
10.5149	0.748
10.556	0.756
10.597	0.772
10.638	0.775
10.6791	0.782
10.7201	0.787
10.7611	0.789
10.8022	0.792
10.8432	0.785
10.8842	0.755
10.9253	0.695
10.9663	0.577
11.0073	0.529
11.0484	0.676
11.0894	0.761
11.1304	0.782
11.1715	0.791
11.2125	0.799
11.2535	0.808
11.2946	0.816
11.3356	0.821
11.3766	0.823
11.4177	0.825
11.4587	0.827
11.4997	0.827
11.5408	0.82
11.5818	0.801
11.6228	0.77
11.6639	0.732
11.7049	0.667
11.7459	0.595
11.787	0.643
11.828	0.803
11.869	0.833
11.9101	0.84
11.9511	0.844
11.9921	0.849
12.0332	0.861
12.0742	0.871
12.1152	0.873
12.1563	0.869
12.1973	0.854
12.2383	0.837
12.2794	0.823
12.3204	0.803
12.3614	0.772
12.4025	0.75
12.4435	0.71
12.4845	0.643
12.5256	0.537
12.5666	0.392
12.6076	0.226
12.6487	0.172
12.6897	0.198
12.7307	0.205
12.7718	0.214
12.8128	0.315
12.8538	0.46
12.8949	0.568
12.9359	0.63
12.9769	0.662
13.018	0.676
13.059	0.678
13.1	0.693
13.1411	0.727
13.1821	0.755
13.2231	0.768
13.2642	0.773
13.3052	0.775
13.3462	0.777
13.3873	0.78
13.4283	0.78
13.4693	0.78
13.5104	0.775
13.5514	0.773
13.5924	0.773
13.6335	0.772
13.6745	0.767
13.7155	0.761
13.7566	0.755
13.7976	0.75
13.8386	0.751
13.8797	0.76
13.9207	0.767
13.9617	0.772
14.0028	0.773
14.0438	0.767
14.0848	0.751
14.1259	0.719
14.1669	0.672
14.2079	0.623
14.249	0.613
14.29	0.65
14.331	0.702
14.3721	0.736
14.4131	0.744
14.4541	0.744
14.4952	0.743
14.5362	0.739
14.5772	0.732
14.6183	0.726
14.6593	0.717
14.7003	0.703
14.7414	0.691
14.7824	0.674
14.8234	0.65
14.8645	0.63
14.9055	0.616
14.9465	0.616
14.9876	0.631
15.0286	0.64
15.0696	0.642
15.1107	0.636
15.1517	0.631
15.1927	0.626
15.2338	0.621
15.2748	0.616
15.3158	0.614
15.3569	0.611
15.3979	0.607
15.4389	0.604
15.48	0.602
15.521	0.602
15.562	0.602
15.6031	0.602
15.6441	0.602
15.6851	0.604
15.7262	0.602
15.7672	0.602
15.8082	0.601
15.8493	0.601
15.8903	0.602
15.9313	0.602
