Infrared Spectrum: 1,2-Dimethyl-4-ethylbenzene
Formula: C 10 H 14
CAS: 934-80-5
State: gas
Instrument: HP-GC/MS/IRD
Origin: NIST Mass Spectrometry Data Center
1/CM	ABSORBANCE
550	0.000348
562	0.000363
574	0.0005145
586	0.000546
598	0.0004485
610	0.0001875
622	0.0002175
634	8.25e-05
646	0
658	6.9e-05
670	1.95e-05
682	0.0001665
694	0.0002745
706	0.000519
718	0.000561
730	0.0003825
742	0.00033
754	0.000324
766	0.0003315
778	0.000447
790	0.0008565
802	0.0022785
814	0.0037815
826	0.0023355
838	0.000804
850	0.000369
862	0.000678
874	0.0014145
886	0.001059
898	0.000672
910	0.0004815
922	0.000165
934	0.0002295
946	0.0002325
958	0.000438
970	0.0006225
982	0.00075
994	0.000852
1006	0.001056
1018	0.0008865
1030	0.000666
1042	0.000498
1054	0.0006045
1066	0.00051
1078	0.0002745
1090	0.0001635
1102	0.000255
1114	0.0004215
1126	0.000543
1138	0.00048
1150	0.0005055
1162	0.000399
1174	0.0002685
1186	0.000159
1198	0.000291
1210	0.0003825
1222	0.0002085
1234	0.0002115
1246	0.0002175
1258	0.0002205
1270	0.000222
1282	0.0003105
1294	0.0004695
1306	0.000681
1318	0.001161
1330	0.0009945
1342	0.0007095
1354	0.00051
1366	0.000762
1378	0.001116
1390	0.001266
1402	0.001044
1414	0.001317
1426	0.001662
1438	0.002385
1450	0.0033645
1462	0.0037095
1474	0.0030015
1486	0.002643
1498	0.004674
1510	0.0046335
1522	0.0019185
1534	0.001107
1546	0.0009765
1558	0.0010995
1570	0.0008655
1582	0.000834
1594	0.0008145
1606	0.001047
1618	0.0012
1630	0.0006795
1642	0.000369
1654	0.000495
1666	0.00024
1678	0.000273
1690	0.0002385
1702	0.0003405
1714	0.000321
1726	0.0002295
1738	0.0005355
1750	0.000666
1762	0.0003975
1774	0.0002505
1786	0.0001875
1798	0.0001845
1810	0.000147
1822	0.000162
1834	0.0001635
1846	0.000219
1858	0.000192
1870	0.000405
1882	0.000381
1894	0.0002595
1906	0.000132
1918	0.0001155
1930	8.55e-05
1942	7.95e-05
1954	4.35e-05
1966	7.8e-05
1978	3.75e-05
1990	7.95e-05
2002	2.7e-05
2014	6.15e-05
2026	3.75e-05
2038	4.2e-05
2050	4.2e-05
2062	1.5e-05
2074	3.75e-05
2086	4.35e-05
2098	4.35e-05
2110	5.25e-05
2122	4.5e-05
2134	7.05e-05
2146	6.15e-05
2158	4.95e-05
2170	3.9e-05
2182	3.6e-05
2194	5.55e-05
2206	2.7e-05
2218	2.55e-05
2230	5.85e-05
2242	4.05e-05
2254	5.1e-05
2266	7.05e-05
2278	5.1e-05
2290	8.7e-05
2302	9.3e-05
2314	0.000117
2326	0.0001665
2338	0.0001575
2350	0.0001185
2362	0.0001965
2374	0.0001605
2386	0.000108
2398	6.45e-05
2410	8.85e-05
2422	0.0001065
2434	7.05e-05
2446	0.0001095
2458	7.35e-05
2470	6.45e-05
2482	8.55e-05
2494	9.6e-05
2506	7.2e-05
2518	9.75e-05
2530	0.0001095
2542	7.05e-05
2554	8.55e-05
2566	7.8e-05
2578	9.3e-05
2590	9.6e-05
2602	0.000117
2614	8.1e-05
2626	0.000147
2638	0.0001215
2650	0.000102
2662	0.0001425
2674	0.000108
2686	0.0001605
2698	0.000189
2710	0.0002355
2722	0.0002835
2734	0.00045
2746	0.00054
2758	0.000459
2770	0.000519
2782	0.000537
2794	0.000573
2806	0.0007125
2818	0.0009165
2830	0.001344
2842	0.0019485
2854	0.0032805
2866	0.0057435
2878	0.0077265
2890	0.007683
2902	0.007263
2914	0.008007
2926	0.0114405
2938	0.014445
2950	0.012114
2962	0.012411
2974	0.0147765
2986	0.009105
2998	0.0069555
3010	0.0074745
3022	0.0062175
3034	0.0045645
3046	0.0041925
3058	0.003498
3070	0.002415
3082	0.0017145
3094	0.0011745
3106	0.000933
3118	0.00087
3130	0.000699
3142	0.000513
3154	0.0004575
3166	0.0003735
3178	0.000297
3190	0.0002445
3202	0.0001695
3214	0.000204
3226	0.00015
3238	0.0001545
3250	0.000174
3262	0.0001035
3274	7.35e-05
3286	8.25e-05
3298	0.000114
3310	8.55e-05
3322	6.75e-05
3334	9e-05
3346	0.000132
3358	0.0001005
3370	3.6e-05
3382	6e-05
3394	0.000111
3406	6.6e-05
3418	6e-05
3430	7.95e-05
3442	9.9e-05
3454	1.8e-05
3466	6.3e-05
3478	5.85e-05
3490	4.35e-05
3502	8.85e-05
3514	2.55e-05
3526	0.000162
3538	5.4e-05
3550	9.45e-05
3562	0.0001215
3574	4.5e-05
3586	0.0001635
3598	0.0001215
3610	0.000234
3622	0.0001095
3634	8.25e-05
3646	0.0001605
3658	9.15e-05
3670	0.0001965
3682	9.75e-05
3694	9.45e-05
3706	0.000177
3718	0.000189
3730	0.000276
3742	0.000291
3754	0.0002415
3766	0.0001125
3778	0.0001005
3790	2.25e-05
3802	0.000153
3814	8.25e-05
3826	7.35e-05
3838	0.0001815
