Infrared Spectrum: 1,3-DIMETHYL-5-ETHYL BENZENE
Formula: C10 H14
CAS: 934-74-7
State: LIQUID
Class: COBLENTZ
Instrument: PERKIN-ELMER
Sampling: TRANSMISSION
Path length: 0.0024 CM
Resolution: 4
Origin: STANDARD OIL OF OHIO
1/CM	TRANSMITTANCE
618.377	0.554
626.809	0.559
635.24	0.5689
643.672	0.5898
652.104	0.6127
660.536	0.6368
668.967	0.6499
677.399	0.6661
685.831	0.6173
694.262	0.2957
702.694	0.2221
711.126	0.5984
719.558	0.7536
727.989	0.797
736.421	0.8184
744.853	0.8326
753.284	0.8429
761.716	0.846
770.148	0.8438
778.58	0.8318
787.011	0.8104
795.443	0.8246
803.875	0.8537
812.307	0.8547
820.738	0.8427
829.17	0.8065
837.602	0.6929
846.033	0.1186
854.465	0.2833
862.897	0.6663
871.329	0.7852
879.76	0.7805
888.192	0.6887
896.624	0.5787
905.055	0.7443
913.487	0.846
921.919	0.848
930.351	0.8411
938.782	0.8119
947.214	0.7443
955.646	0.8486
964.077	0.8377
972.509	0.7962
980.941	0.8121
989.373	0.829
997.804	0.8142
1006.24	0.799
1014.67	0.783
1023.1	0.7511
1031.53	0.6882
1039.96	0.5476
1048.39	0.5857
1056.83	0.6901
1065.26	0.6162
1073.69	0.6503
1082.12	0.7908
1090.55	0.8266
1098.98	0.8448
1107.42	0.854
1115.85	0.8563
1124.28	0.865
1132.71	0.865
1141.14	0.865
1149.58	0.865
1158.01	0.8598
1166.44	0.834
1174.87	0.8613
1183.3	0.871
1191.73	0.871
1200.17	0.87
1208.6	0.87
1217.03	0.868
1225.46	0.868
1233.89	0.86
1242.32	0.853
1250.76	0.849
1259.19	0.839
1267.62	0.8292
1276.05	0.8165
1284.48	0.7975
1292.91	0.8179
1301.35	0.8223
1309.78	0.8143
1318.21	0.7999
1326.64	0.7334
1335.07	0.6666
1343.5	0.7567
1351.94	0.7531
1360.37	0.722
1368.8	0.6102
1377.23	0.4392
1385.66	0.5717
1394.1	0.639
1402.53	0.63
1410.96	0.613
1419.39	0.5714
1427.82	0.5346
1436.25	0.508
1444.69	0.3697
1453.12	0.2185
1461.55	0.1492
1469.98	0.2002
1478.41	0.3017
1486.84	0.3861
1495.28	0.4862
1503.71	0.5513
1512.14	0.607
1520.57	0.6267
1529	0.6815
1537.43	0.6969
1545.87	0.723
1554.3	0.7269
1562.73	0.733
1571.16	0.716
1579.59	0.6593
1588.02	0.6463
1596.46	0.5258
1604.89	0.245
1613.32	0.0659
1621.75	0.5932
1630.18	0.7509
1638.61	0.8736
1647.05	0.8973
1655.48	0.9055
1663.91	0.908
1672.34	0.912
1680.77	0.912
1689.21	0.913
1697.64	0.9128
1706.07	0.9066
1714.5	0.8954
1722.93	0.8015
1731.36	0.7874
1739.8	0.8543
1748.23	0.8777
1756.66	0.845
1765.09	0.7946
1773.52	0.8077
1781.95	0.8713
1790.39	0.9123
1798.82	0.935
1807.25	0.94
1815.68	0.94
1824.11	0.94
1832.54	0.939
1840.98	0.9321
1849.41	0.9369
1857.84	0.939
1866.27	0.9372
1874.7	0.93
1883.13	0.9222
1891.57	0.922
1900	0.927
1908.43	0.9253
1916.86	0.922
1925.29	0.9216
1933.72	0.9236
1942.16	0.929
1950.59	0.939
1959.02	0.942
1967.45	0.946
1975.88	0.946
1984.32	0.946
1992.75	0.946
2001.18	0.944
2009.61	0.947
2018.04	0.946
2026.47	0.942
2034.91	0.946
2043.34	0.947
2051.77	0.947
2060.2	0.9446
2068.63	0.946
2077.06	0.947
2085.5	0.9476
2093.93	0.947
2102.36	0.946
2110.79	0.94
2119.22	0.946
2127.65	0.946
2136.09	0.946
2144.52	0.946
2152.95	0.944
2161.38	0.94
2169.81	0.9434
2178.24	0.9446
2186.68	0.942
2195.11	0.942
2203.54	0.942
2211.97	0.94
2220.4	0.939
2228.84	0.9384
2237.27	0.9397
2245.7	0.94
2254.13	0.94
2262.56	0.94
2270.99	0.94
2279.43	0.942
2287.86	0.942
2296.29	0.94
2304.72	0.9343
2313.15	0.9306
2321.58	0.932
2330.02	0.935
2338.45	0.935
2346.88	0.935
2355.31	0.935
2363.74	0.934
2372.17	0.932
2380.61	0.929
2389.04	0.9256
2397.47	0.9206
2405.9	0.917
2414.33	0.919
2422.76	0.9176
2431.2	0.915
2439.63	0.913
2448.06	0.913
2456.49	0.913
2464.92	0.913
2473.35	0.9164
2481.79	0.9264
2490.22	0.927
2498.65	0.9423
2507.08	0.929
2515.51	0.929
2523.95	0.929
2532.38	0.93
2540.81	0.93
2549.24	0.9314
2557.67	0.93
2566.1	0.93
2574.54	0.9293
2582.97	0.929
2591.4	0.927
2599.83	0.924
2608.26	0.9234
2616.69	0.925
2625.13	0.9243
2633.56	0.922
2641.99	0.9193
2650.42	0.917
2658.85	0.917
2667.28	0.9184
2675.72	0.919
2684.15	0.917
2692.58	0.9123
2701.01	0.908
2709.44	0.9023
2717.87	0.8936
2726.31	0.8525
2734.74	0.7604
2743.17	0.8123
2751.6	0.8744
2760.03	0.875
2768.46	0.8672
2776.9	0.8566
2785.33	0.8483
2793.76	0.833
2802.19	0.8276
2810.62	0.8111
2819.06	0.7815
2827.49	0.7289
2835.92	0.6431
2844.35	0.5413
2852.78	0.3727
2861.21	0.2421
2869.65	0.1806
2878.08	0.1504
2886.51	0.1902
2894.94	0.2249
2903.37	0.1788
2911.8	0.1515
2920.24	0.0658
2928.67	0.0464
2937.1	0.048
2945.53	0.074
2953.96	0.0963
2962.39	0.0608
2970.83	0.023
2979.26	0.0343
2987.69	0.1759
2996.12	0.2729
3004.55	0.2741
3012.98	0.1854
3021.42	0.1001
3029.85	0.1993
3038.28	0.3762
3046.71	0.4963
3055.14	0.5992
3063.58	0.6631
3072.01	0.7172
3080.44	0.7714
3088.87	0.8219
3097.3	0.8481
3105.73	0.8688
3114.17	0.8794
3122.6	0.887
3131.03	0.89
3139.46	0.89
3147.89	0.8886
3156.32	0.888
3164.76	0.89
3173.19	0.892
3181.62	0.897
3190.05	0.8994
3198.48	0.907
3206.91	0.91
3215.35	0.9114
3223.78	0.912
3232.21	0.912
3240.64	0.912
3249.07	0.9144
3257.5	0.915
3265.94	0.917
3274.37	0.917
3282.8	0.917
3291.23	0.917
3299.66	0.919
3308.09	0.919
3316.53	0.919
3324.96	0.917
3333.39	0.917
3341.82	0.917
3350.25	0.915
3358.69	0.915
3367.12	0.915
3375.55	0.913
3383.98	0.913
3392.41	0.912
3400.84	0.912
3409.28	0.91
3417.71	0.908
3426.14	0.908
3434.57	0.907
3443	0.907
3451.43	0.905
3459.87	0.903
3468.3	0.903
3476.73	0.903
3485.16	0.903
3493.59	0.903
3502.02	0.903
3510.46	0.903
3518.89	0.905
3527.32	0.907
3535.75	0.908
3544.18	0.91
3552.61	0.91
3561.05	0.91
3569.48	0.91
3577.91	0.91
3586.34	0.912
3594.77	0.912
3603.2	0.912
3611.64	0.912
3620.07	0.912
3628.5	0.91
3636.93	0.908
3645.36	0.9073
3653.8	0.907
3662.23	0.905
3670.66	0.905
3679.09	0.905
3687.52	0.903
3695.95	0.903
3704.39	0.903
3712.82	0.903
3721.25	0.902
3729.68	0.9
3738.11	0.9
3746.54	0.9
3754.98	0.9
3763.41	0.9
3771.84	0.9
3780.27	0.9
3788.7	0.9
3797.13	0.9
3805.57	0.898
3814	0.898
3822.43	0.898
3830.86	0.898
3839.29	0.897
3847.72	0.895
3856.16	0.8936
3864.59	0.89
3873.02	0.887
3881.45	0.883
3889.88	0.881
3898.32	0.88
3906.75	0.88
3915.18	0.8786
3923.61	0.876
3932.04	0.875
3940.47	0.875
