Infrared Spectrum: 3-Methoxycatechol
Formula: C 7 H 8 O 3
CAS: 934-00-9
State: gas
Instrument: HP-GC/MS/IRD
Origin: NIST Mass Spectrometry Data Center
1/CM	ABSORBANCE
550	0.0006832
562	0.0006328
574	0.0015596
586	0.0016996
598	0.0007224
610	0.0001484
622	0.0002716
634	0.0001792
646	0.0002464
658	0.0002604
670	0.0004536
682	0.001106
694	0.0035308
706	0.0058268
718	0.0050484
730	0.002436
742	0.001288
754	0.0021868
766	0.0036008
778	0.0025368
790	0.0009968
802	0.0005152
814	0.0008176
826	0.0013244
838	0.0010388
850	0.0003304
862	0.0001148
874	4.48e-05
886	0.0001204
898	0.0002352
910	0.0005488
922	0.001526
934	0.0030996
946	0.0027328
958	0.0010696
970	0.0005796
982	0.0004732
994	0.0005152
1006	0.0006412
1018	0.0009576
1030	0.0018172
1042	0.003906
1054	0.0077196
1066	0.0109536
1078	0.0125916
1090	0.013664
1102	0.0101332
1114	0.0039648
1126	0.0022092
1138	0.002464
1150	0.0041468
1162	0.0074116
1174	0.0120624
1186	0.0165368
1198	0.0258272
1210	0.0262696
1222	0.0151592
1234	0.01421
1246	0.018214
1258	0.0118804
1270	0.0113148
1282	0.0168868
1294	0.0136836
1306	0.0063784
1318	0.0041468
1330	0.0050988
1342	0.0098336
1354	0.014812
1366	0.0090804
1378	0.001722
1390	0.0009072
1402	0.0007084
1414	0.0006916
1426	0.0009408
1438	0.002156
1450	0.0035728
1462	0.0051072
1474	0.00854
1486	0.014784
1498	0.0183652
1510	0.015064
1522	0.0070196
1534	0.0028812
1546	0.0021588
1558	0.0025144
1570	0.0025116
1582	0.0026068
1594	0.0040376
1606	0.0073136
1618	0.010836
1630	0.0092988
1642	0.0040684
1654	0.0016156
1666	0.0011536
1678	0.0009828
1690	0.0009716
1702	0.0007308
1714	0.0004844
1726	0.000294
1738	0.0001708
1750	0.0001092
1762	0.0001288
1774	0.0001652
1786	0.000238
1798	0.0002016
1810	0.0001008
1822	3.64e-05
1834	1.96e-05
1846	4.2e-05
1858	0.0001372
1870	0.0003304
1882	0.0003472
1894	0.0002128
1906	0.0001176
1918	9.24e-05
1930	6.16e-05
1942	9.52e-05
1954	0.0001148
1966	7e-05
1978	0.000112
1990	0.0001568
2002	0.0001512
2014	0.0001596
2026	0.000154
2038	0.0001372
2050	8.4e-05
2062	6.72e-05
2074	6.16e-05
2086	5.6e-05
2098	2.52e-05
2110	4.2e-05
2122	2.24e-05
2134	5.04e-05
2146	9.8e-05
2158	0.0001204
2170	0.000168
2182	0.0002128
2194	0.0002296
2206	0.00021
2218	0.0001904
2230	0.0001316
2242	6.72e-05
2254	3.36e-05
2266	4.2e-05
2278	5.88e-05
2290	7e-05
2302	9.52e-05
2314	0.0001176
2326	0.0001456
2338	9.52e-05
2350	9.52e-05
2362	6.72e-05
2374	9.8e-05
2386	0.000126
2398	0.000154
2410	0.0001596
2422	0.0001932
2434	0.0001904
2446	0.0001736
2458	0.0001204
2470	0.000112
2482	0.0001876
2494	0.000196
2506	0.0001624
2518	0.0001708
2530	0.0002184
2542	0.0001652
2554	0.0001428
2566	0.0001204
2578	4.76e-05
2590	2.52e-05
2602	3.08e-05
2614	4.76e-05
2626	2.52e-05
2638	5.04e-05
2650	5.32e-05
2662	6.16e-05
2674	9.24e-05
2686	0.0001092
2698	0.0001428
2710	0.0001176
2722	7.28e-05
2734	5.04e-05
2746	3.64e-05
2758	5.88e-05
2770	3.92e-05
2782	0.0001064
2794	0.0001484
2806	0.0002604
2818	0.0004116
2830	0.0007812
2842	0.0019096
2854	0.0023044
2866	0.00133
2878	0.0009044
2890	0.0008848
2902	0.0012348
2914	0.001848
2926	0.002072
2938	0.0027384
2950	0.004088
2962	0.0039788
2974	0.00266
2986	0.0019488
2998	0.0022708
3010	0.0027244
3022	0.0017724
3034	0.0010108
3046	0.0011704
3058	0.0016464
3070	0.0022316
3082	0.001946
3094	0.001036
3106	0.0005684
3118	0.0003612
3130	0.0002128
3142	0.0001008
3154	0.0001092
3166	7e-05
3178	8.4e-05
3190	0.0001652
3202	0.0001148
3214	0.0001092
3226	0.0001708
3238	0.0001484
3250	0.0001372
3262	0.0001344
3274	0.0001764
3286	0.0001932
3298	0.0002296
3310	0.0001652
3322	6.44e-05
3334	8.68e-05
3346	5.32e-05
3358	7.84e-05
3370	8.96e-05
3382	0.0001036
3394	0.0001204
3406	6.16e-05
3418	9.24e-05
3430	2.52e-05
3442	0.0001008
3454	9.8e-05
3466	0.0001372
3478	0.0001764
3490	0.0001568
3502	0.0001736
3514	0.00021
3526	0.0002184
3538	0.0003584
3550	0.0006328
3562	0.0012516
3574	0.004032
3586	0.0131236
3598	0.0219128
3610	0.0150024
3622	0.0036148
3634	0.0009912
3646	0.0007448
3658	0.0009128
3670	0.000672
3682	0.0003024
3694	0.0001708
3706	0.0001484
3718	0.0001176
3730	0.0001176
3742	0.0001568
3754	0.0001204
3766	0.0001624
3778	0.0001484
3790	0.0001624
3802	0.0001008
3814	0.0001708
3826	0.0001456
3838	0.0001036
