Infrared Spectrum: 2-AMINOBENZIMIDAZOLE
Formula: C7 H7 N3
CAS: 934-32-7
State: SOLID (MINERAL OIL MULL)
Class: COBLENTZ
Instrument: Not specified, most likely a prism, grating, or hybrid spectrometer.
Sampling: TRANSMISSION
Resolution: 4
Origin: DOW CHEMICAL COMPANY
MICROMETERS	TRANSMITTANCE
2.041	0.597
2.0821	0.606
2.12319	0.618
2.16429	0.623
2.20539	0.63
2.24648	0.635
2.28758	0.636
2.32868	0.628
2.36978	0.64
2.41087	0.65
2.45197	0.666
2.49307	0.678
2.53416	0.688
2.57526	0.69
2.61636	0.695
2.65745	0.712
2.69855	0.715
2.73965	0.731
2.78074	0.739
2.82184	0.755
2.86294	0.758
2.90403	0.691
2.94513	0.424
2.98623	0.368
3.02733	0.46
3.06842	0.527
3.10952	0.551
3.15062	0.534
3.19171	0.5
3.23281	0.484
3.27391	0.467
3.315	0.455
3.3561	0.376
3.3972	0.106
3.43829	0.034
3.47939	0.102
3.52049	0.311
3.56158	0.619
3.60268	0.662
3.64378	0.667
3.68488	0.684
3.72597	0.71
3.76707	0.722
3.80817	0.738
3.84926	0.753
3.89036	0.765
3.93146	0.78
3.97255	0.785
4.01365	0.799
4.05475	0.806
4.09584	0.811
4.13694	0.818
4.17804	0.82
4.21913	0.82
4.26023	0.827
4.30133	0.833
4.34243	0.84
4.38352	0.839
4.42462	0.839
4.46572	0.84
4.50681	0.844
4.54791	0.844
4.58901	0.845
4.6301	0.849
4.6712	0.854
4.7123	0.863
4.75339	0.863
4.79449	0.866
4.83559	0.875
4.87669	0.878
4.91778	0.88
4.95888	0.886
4.99998	0.886
5.04107	0.886
5.08217	0.893
5.12327	0.897
5.16436	0.9
5.20546	0.898
5.24656	0.895
5.28765	0.9
5.32875	0.886
5.36985	0.904
5.41094	0.914
5.45204	0.914
5.49314	0.921
5.53424	0.916
5.57533	0.919
5.61643	0.928
5.65753	0.916
5.69862	0.907
5.73972	0.914
5.78082	0.926
5.82191	0.904
5.86301	0.888
5.90411	0.849
5.9452	0.782
5.9863	0.597
6.0274	0.45
6.06849	0.518
6.10959	0.626
6.15069	0.674
6.19179	0.772
6.23288	0.82
6.27398	0.784
6.31508	0.707
6.35617	0.443
6.39727	0.356
6.43837	0.583
6.47946	0.696
6.52056	0.768
6.56166	0.782
6.60275	0.811
6.64385	0.82
6.68495	0.815
6.72604	0.717
6.76714	0.563
6.80824	0.243
6.84934	0.15
6.89043	0.292
6.93153	0.503
6.97263	0.654
7.01372	0.715
7.05482	0.767
7.09592	0.789
7.13701	0.792
7.17811	0.761
7.21921	0.594
7.2603	0.522
7.3014	0.642
7.3425	0.722
7.3836	0.775
7.42469	0.78
7.46579	0.803
7.50689	0.825
7.54798	0.816
7.58908	0.748
7.63018	0.767
7.67127	0.828
7.71237	0.84
7.75347	0.847
7.79456	0.82
7.83566	0.71
7.87676	0.582
7.91785	0.69
7.95895	0.75
8.00005	0.698
8.04115	0.676
8.08224	0.775
8.12334	0.811
8.16444	0.83
8.20553	0.832
8.24663	0.839
8.28773	0.857
8.32882	0.859
8.36992	0.859
8.41102	0.857
8.45211	0.854
8.49321	0.852
8.53431	0.851
8.5754	0.84
8.6165	0.818
8.6576	0.82
8.6987	0.828
8.73979	0.833
8.78089	0.835
8.82199	0.83
8.86308	0.809
8.90418	0.787
8.94528	0.755
8.98637	0.731
9.02747	0.698
9.06857	0.715
9.10966	0.784
9.15076	0.815
9.19186	0.83
9.23296	0.837
9.27405	0.842
9.31515	0.847
9.35625	0.851
9.39734	0.856
9.43844	0.861
9.47954	0.861
9.52063	0.861
9.56173	0.856
9.60283	0.849
9.64392	0.842
9.68502	0.837
9.72612	0.856
9.76721	0.875
9.80831	0.88
9.84941	0.881
9.89051	0.881
9.9316	0.878
9.9727	0.837
10.0138	0.847
10.0549	0.869
10.096	0.878
10.1371	0.88
10.1782	0.878
10.2193	0.875
10.2604	0.875
10.3015	0.873
10.3426	0.871
10.3837	0.871
10.4248	0.873
10.4659	0.876
10.507	0.876
10.5481	0.876
10.5892	0.876
10.6302	0.875
10.6713	0.876
10.7124	0.876
10.7535	0.88
10.7946	0.881
10.8357	0.863
10.8768	0.813
10.9179	0.808
10.959	0.869
11.0001	0.886
11.0412	0.888
11.0823	0.868
11.1234	0.787
11.1645	0.761
11.2056	0.827
11.2467	0.857
11.2878	0.869
11.3289	0.876
11.37	0.881
11.4111	0.881
11.4522	0.881
11.4933	0.886
11.5344	0.886
11.5755	0.881
11.6166	0.878
11.6577	0.875
11.6988	0.869
11.7399	0.866
11.781	0.868
11.8221	0.88
11.8632	0.886
11.9043	0.886
11.9453	0.886
11.9864	0.886
12.0275	0.885
12.0686	0.883
12.1097	0.88
12.1508	0.878
12.1919	0.873
12.233	0.871
12.2741	0.868
12.3152	0.868
12.3563	0.864
12.3974	0.861
12.4385	0.857
12.4796	0.852
12.5207	0.849
12.5618	0.847
12.6029	0.844
12.644	0.837
12.6851	0.832
12.7262	0.827
12.7673	0.823
12.8084	0.815
12.8495	0.808
12.8906	0.806
12.9317	0.797
12.9728	0.791
13.0139	0.784
13.055	0.777
13.0961	0.76
13.1372	0.726
13.1783	0.667
13.2194	0.618
13.2604	0.628
13.3015	0.647
13.3426	0.638
13.3837	0.575
13.4248	0.469
13.4659	0.398
13.507	0.393
13.5481	0.465
13.5892	0.488
13.6303	0.443
13.6714	0.366
13.7125	0.304
13.7536	0.33
13.7947	0.417
13.8358	0.506
13.8769	0.573
13.918	0.616
13.9591	0.642
14.0002	0.652
14.0413	0.674
14.0824	0.684
14.1235	0.69
14.1646	0.688
14.2057	0.683
14.2468	0.669
14.2879	0.648
14.329	0.633
14.3701	0.619
14.4112	0.611
14.4523	0.606
14.4934	0.602
14.5345	0.606
14.5756	0.609
14.6166	0.613
14.6577	0.613
14.6988	0.613
14.7399	0.609
14.781	0.604
14.8221	0.601
14.8632	0.594
14.9043	0.585
14.9454	0.578
14.9865	0.575
15.0276	0.568
15.0687	0.558
15.1098	0.553
15.1509	0.546
15.192	0.537
15.2331	0.529
15.2742	0.525
15.3153	0.517
15.3564	0.513
15.3975	0.505
15.4386	0.496
15.4797	0.488
15.5208	0.482
15.5619	0.474
15.603	0.469
15.6441	0.464
15.6852	0.46
15.7263	0.453
15.7674	0.448
15.8085	0.446
15.8496	0.443
15.8907	0.44
