Infrared Spectrum: 2-Benzothiazolol
Formula: C 7 H 5 N O S
CAS: 934-34-9
State: gas
Instrument: HP-GC/MS/IRD
Origin: NIST Mass Spectrometry Data Center
1/CM	ABSORBANCE
550	0.000696
562	0.000264
574	0.000144
586	0.000264
598	0.000408
610	0.000636
622	0.003444
634	0.005724
646	0.003756
658	0.00198
670	0.00264
682	0.002196
694	0.001056
706	0.00168
718	0.003792
730	0.0072
742	0.011544
754	0.005004
766	0.001092
778	0.0003
790	0.000132
802	0
814	0.00012
826	0.00048
838	0.000408
850	0.000492
862	0.00096
874	0.00144
886	0.001128
898	0.000636
910	0.000564
922	0.00108
934	0.0015
946	0.00162
958	0.00108
970	0.000576
982	0.0003
994	0.000336
1006	0.000576
1018	0.001248
1030	0.000732
1042	0.00036
1054	0.000756
1066	0.000792
1078	0.000588
1090	0.001308
1102	0.00216
1114	0.002892
1126	0.003576
1138	0.00312
1150	0.003384
1162	0.006696
1174	0.01038
1186	0.008088
1198	0.003264
1210	0.001044
1222	0.000672
1234	0.00126
1246	0.000996
1258	0.000768
1270	0.001728
1282	0.001644
1294	0.001872
1306	0.001212
1318	0.000372
1330	0.000288
1342	0.000312
1354	0.000456
1366	0.000972
1378	0.003396
1390	0.004392
1402	0.001212
1414	0.000252
1426	0.000276
1438	0.00054
1450	0.001968
1462	0.008436
1474	0.012132
1486	0.003984
1498	0.00072
1510	0.000348
1522	0.000216
1534	0.000252
1546	0.000432
1558	0.00072
1570	0.001416
1582	0.00192
1594	0.002316
1606	0.002556
1618	0.001344
1630	0.0009
1642	0.0012
1654	0.0018
1666	0.002496
1678	0.002952
1690	0.004032
1702	0.005424
1714	0.008496
1726	0.027324
1738	0.096588
1750	0.111252
1762	0.029304
1774	0.00732
1786	0.004224
1798	0.003732
1810	0.002988
1822	0.0015
1834	0.001008
1846	0.00096
1858	0.000888
1870	0.000744
1882	0.000624
1894	0.000432
1906	0.00036
1918	0.000492
1930	0.000396
1942	0.000168
1954	7.2e-05
1966	8.4e-05
1978	8.4e-05
1990	7.2e-05
2002	9.6e-05
2014	0.000108
2026	0.000108
2038	0.000108
2050	8.4e-05
2062	6e-05
2074	7.2e-05
2086	4.8e-05
2098	4.8e-05
2110	0.000108
2122	0.000144
2134	0.000108
2146	8.4e-05
2158	0.000108
2170	0.000144
2182	0.000132
2194	0.000108
2206	0.00012
2218	0.000264
2230	0.000324
2242	0.00024
2254	0.000168
2266	0.00018
2278	0.000228
2290	0.000252
2302	0.000216
2314	0.000252
2326	0.00024
2338	0.000252
2350	0.000252
2362	0.000192
2374	0.000168
2386	9.6e-05
2398	4.8e-05
2410	7.2e-05
2422	4.8e-05
2434	6e-05
2446	0.000144
2458	0.000156
2470	0.000132
2482	6e-05
2494	2.4e-05
2506	2.4e-05
2518	2.4e-05
2530	2.4e-05
2542	3.6e-05
2554	3.6e-05
2566	6e-05
2578	0.000108
2590	0.000132
2602	0.000108
2614	0.000132
2626	0.000132
2638	2.4e-05
2650	1.2e-05
2662	4.8e-05
2674	3.6e-05
2686	3.6e-05
2698	6e-05
2710	3.6e-05
2722	1.2e-05
2734	2.4e-05
2746	0
2758	6e-05
2770	6e-05
2782	3.6e-05
2794	7.2e-05
2806	3.6e-05
2818	0
2830	7.2e-05
2842	7.2e-05
2854	2.4e-05
2866	7.2e-05
2878	9.6e-05
2890	0.000108
2902	0.00012
2914	0.000132
2926	0.00012
2938	0.000108
2950	9.6e-05
2962	0.000168
2974	0.000252
2986	0.0003
2998	0.000216
3010	0.000264
3022	0.000504
3034	0.000876
3046	0.001224
3058	0.001572
3070	0.0021
3082	0.00264
3094	0.001836
3106	0.000564
3118	0.000204
3130	0.000132
3142	0.000108
3154	4.8e-05
3166	2.4e-05
3178	8.4e-05
3190	0.000108
3202	0.000144
3214	0.000108
3226	0.000132
3238	6e-05
3250	6e-05
3262	4.8e-05
3274	0.000132
3286	0.000108
3298	9.6e-05
3310	0.000156
3322	0.000108
3334	0.000156
3346	0.000144
3358	0.00012
3370	0.000144
3382	0.000156
3394	0.000168
3406	0.0003
3418	0.000492
3430	0.000864
3442	0.002244
3454	0.005316
3466	0.00786
3478	0.005844
3490	0.001884
3502	0.000624
3514	0.000336
3526	0.000192
3538	0.00018
3550	0.000144
3562	7.2e-05
3574	0.000132
3586	2.4e-05
3598	9.6e-05
3610	6e-05
3622	8.4e-05
3634	7.2e-05
3646	3.6e-05
3658	7.2e-05
3670	3.6e-05
3682	0.00012
3694	8.4e-05
3706	4.8e-05
3718	0.000108
3730	6e-05
3742	3.6e-05
3754	7.2e-05
3766	9.6e-05
3778	8.4e-05
3790	0.000156
3802	9.6e-05
3814	4.8e-05
3826	0.00012
3838	4.8e-05
