Infrared Spectrum: 2-CHLORO-3-(3-METHYL-2-PYRAZINYLMETHYL) PYRAZINE
Formula: C10 H9 Cl N4
CAS: 93409-03-1
State: SOLID (MINERAL OIL MULL)
Melting point: 116-117 C
Class: COBLENTZ
Instrument: Not specified, most likely a prism, grating, or hybrid spectrometer.
Sampling: TRANSMISSION
Resolution: 4
Origin: WYANDOTTE CHEMICALS CORP., WYANDOTTE, MICHIGAN, USA
MICROMETERS	TRANSMITTANCE
2.066	0.459
2.10583	0.469
2.14566	0.472
2.18549	0.474
2.22532	0.48
2.26515	0.49
2.30498	0.504
2.34481	0.51
2.38464	0.517
2.42447	0.527
2.4643	0.534
2.50413	0.539
2.54396	0.55
2.58379	0.56
2.62362	0.567
2.66345	0.577
2.70328	0.582
2.74311	0.589
2.78294	0.595
2.82277	0.594
2.8626	0.592
2.90243	0.59
2.94226	0.594
2.98209	0.597
3.02192	0.602
3.06175	0.603
3.10158	0.61
3.14141	0.612
3.18124	0.603
3.22106	0.595
3.26089	0.539
3.30072	0.515
3.34055	0.366
3.38038	0.056
3.42021	0.053
3.46004	0.124
3.49987	0.141
3.5397	0.366
3.57953	0.692
3.61936	0.75
3.65919	0.76
3.69902	0.743
3.73885	0.748
3.77868	0.76
3.81851	0.77
3.85834	0.783
3.89817	0.793
3.938	0.803
3.97783	0.808
4.01766	0.811
4.05749	0.816
4.09732	0.826
4.13715	0.826
4.17698	0.83
4.21681	0.83
4.25664	0.821
4.29647	0.818
4.3363	0.83
4.37613	0.836
4.41596	0.861
4.45579	0.865
4.49562	0.866
4.53545	0.868
4.57528	0.875
4.61511	0.88
4.65494	0.885
4.69477	0.888
4.7346	0.888
4.77443	0.891
4.81426	0.901
4.85409	0.913
4.89392	0.91
4.93375	0.911
4.97358	0.918
5.01341	0.918
5.05324	0.918
5.09307	0.896
5.1329	0.896
5.17273	0.913
5.21256	0.888
5.25239	0.916
5.29222	0.94
5.33205	0.936
5.37188	0.915
5.41171	0.925
5.45154	0.933
5.49136	0.94
5.53119	0.933
5.57102	0.94
5.61085	0.948
5.65068	0.935
5.69051	0.943
5.73034	0.941
5.77017	0.946
5.81	0.946
5.84983	0.935
5.88966	0.936
5.92949	0.955
5.96932	0.953
6.00915	0.941
6.04898	0.926
6.08881	0.936
6.12864	0.946
6.16847	0.955
6.2083	0.958
6.24813	0.958
6.28796	0.956
6.32779	0.96
6.36762	0.906
6.40745	0.861
6.44728	0.871
6.48711	0.826
6.52694	0.788
6.56677	0.79
6.6066	0.81
6.64643	0.886
6.68626	0.88
6.72609	0.81
6.76592	0.57
6.80575	0.332
6.84558	0.287
6.88541	0.311
6.92524	0.301
6.96507	0.286
7.0049	0.376
7.04473	0.326
7.08456	0.129
7.12439	0.144
7.16422	0.311
7.20405	0.134
7.24388	0.046
7.28371	0.129
7.32354	0.349
7.36337	0.549
7.4032	0.638
7.44303	0.692
7.48286	0.725
7.52269	0.745
7.56252	0.77
7.60235	0.727
7.64218	0.753
7.68201	0.74
7.72183	0.815
7.76166	0.851
7.80149	0.865
7.84132	0.87
7.88115	0.861
7.92098	0.861
7.96081	0.8
8.00064	0.787
8.04047	0.793
8.0803	0.876
8.12013	0.9
8.15996	0.903
8.19979	0.9
8.23962	0.813
8.27945	0.632
8.31928	0.777
8.35911	0.81
8.39894	0.728
8.43877	0.76
8.4786	0.777
8.51843	0.715
8.55826	0.45
8.59809	0.594
8.63792	0.708
8.67775	0.677
8.71758	0.449
8.75741	0.442
8.79724	0.399
8.83707	0.45
8.8769	0.309
8.91673	0.198
8.95656	0.367
8.99639	0.557
9.03622	0.638
9.07605	0.638
9.11588	0.509
9.15571	0.244
9.19554	0.099
9.23537	0.164
9.2752	0.362
9.31503	0.579
9.35486	0.69
9.39469	0.57
9.43452	0.184
9.47435	0.344
9.51418	0.64
9.55401	0.712
9.59384	0.757
9.63367	0.74
9.6735	0.652
9.71333	0.635
9.75316	0.732
9.79299	0.805
9.83282	0.836
9.87265	0.861
9.91248	0.886
9.95231	0.898
9.99213	0.895
10.032	0.855
10.0718	0.83
10.1116	0.833
10.1515	0.811
10.1913	0.707
10.2311	0.557
10.2709	0.587
10.3108	0.608
10.3506	0.693
10.3904	0.801
10.4303	0.861
10.4701	0.89
10.5099	0.908
10.5498	0.92
10.5896	0.925
10.6294	0.928
10.6692	0.931
10.7091	0.938
10.7489	0.94
10.7887	0.935
10.8286	0.923
10.8684	0.896
10.9082	0.747
10.9481	0.575
10.9879	0.71
11.0277	0.808
11.0675	0.828
11.1074	0.816
11.1472	0.673
11.187	0.51
11.2269	0.444
11.2667	0.429
11.3065	0.442
11.3463	0.396
11.3862	0.56
11.426	0.737
11.4658	0.811
11.5057	0.8
11.5455	0.514
11.5853	0.435
11.6252	0.474
11.665	0.522
11.7048	0.377
11.7446	0.382
11.7845	0.592
11.8243	0.715
11.8641	0.808
11.904	0.873
11.9438	0.91
11.9836	0.935
12.0235	0.95
12.0633	0.965
12.1031	0.971
12.1429	0.978
12.1828	0.981
12.2226	0.985
12.2624	0.991
12.3023	0.99
12.3421	0.986
12.3819	0.98
12.4218	0.965
12.4616	0.958
12.5014	0.976
12.5412	0.978
12.5811	0.966
12.6209	0.981
12.6607	1
12.7006	1.003
12.7404	1.003
12.7802	1.003
12.8201	1.003
12.8599	1.003
12.8997	1.003
12.9395	1.003
12.9794	1.003
13.0192	1.003
13.059	1.001
13.0989	1.001
13.1387	1.001
13.1785	1
13.2184	0.993
13.2582	0.961
13.298	0.931
13.3378	0.973
13.3777	0.99
13.4175	0.993
13.4573	0.983
13.4972	0.96
13.537	0.88
13.5768	0.831
13.6166	0.801
13.6565	0.795
13.6963	0.853
13.7361	0.913
13.776	0.948
13.8158	0.966
13.8556	0.97
13.8955	0.97
13.9353	0.971
13.9751	0.988
14.0149	0.996
14.0548	0.998
14.0946	0.996
14.1344	0.99
14.1743	0.985
14.2141	0.973
14.2539	0.945
14.2938	0.863
14.3336	0.78
14.3734	0.797
14.4132	0.881
14.4531	0.96
14.4929	0.991
14.5327	0.998
14.5726	0.996
14.6124	0.993
14.6522	0.993
14.6921	0.991
14.7319	0.991
14.7717	0.991
14.8115	0.988
14.8514	0.988
14.8912	0.986
14.931	0.985
14.9709	0.978
15.0107	0.965
15.0505	0.913
15.0904	0.89
15.1302	0.915
15.17	0.945
15.2098	0.955
15.2497	0.948
15.2895	0.938
15.3293	0.916
15.3692	0.901
15.409	0.888
15.4488	0.878
15.4887	0.866
15.5285	0.856
15.5683	0.846
15.6081	0.841
15.648	0.833
15.6878	0.82
15.7276	0.806
15.7675	0.79
15.8073	0.778
15.8471	0.763
15.8869	0.747
15.9268	0.727
15.9666	0.72
