Infrared Spectrum: O-NITRO CARBANILIC ACID, 2-HEXYL ESTER
Formula: C13 H18 N2 O4
CAS: 93429-11-9
Class: COBLENTZ
Instrument: Not specified, most likely a grating spectrometer.
Sampling: TRANSMISSION
Path length: CAPILLARY
Resolution: 4
Origin: CITRUS EXPERIMENT STATION, UNIVERSITY OF FLORIDA (G. EDWARDS)
MICROMETERS	TRANSMITTANCE
2.027	0.918
2.06019	0.918
2.09338	0.918
2.12657	0.918
2.15976	0.917
2.19295	0.917
2.22614	0.917
2.25933	0.917
2.29252	0.914
2.32571	0.918
2.3589	0.918
2.39209	0.917
2.42528	0.915
2.45847	0.913
2.49166	0.911
2.52485	0.91
2.55803	0.909
2.59122	0.909
2.62441	0.901
2.6576	0.894
2.69079	0.894
2.72398	0.891
2.75717	0.89
2.79036	0.889
2.82355	0.882
2.85674	0.878
2.88993	0.859
2.92312	0.81
2.95631	0.74
2.9895	0.806
3.02269	0.898
3.05588	0.895
3.08907	0.894
3.12226	0.89
3.15545	0.874
3.18864	0.867
3.22183	0.858
3.25502	0.851
3.28821	0.83
3.3214	0.762
3.35459	0.648
3.38778	0.659
3.42097	0.745
3.45416	0.778
3.48735	0.82
3.52054	0.893
3.55372	0.902
3.58691	0.902
3.6201	0.905
3.65329	0.906
3.68648	0.909
3.71967	0.906
3.75286	0.906
3.78605	0.907
3.81924	0.909
3.85243	0.909
3.88562	0.91
3.91881	0.91
3.952	0.91
3.98519	0.909
4.01838	0.91
4.05157	0.91
4.08476	0.911
4.11795	0.91
4.15114	0.91
4.18433	0.909
4.21752	0.91
4.25071	0.911
4.2839	0.913
4.31709	0.913
4.35028	0.911
4.38347	0.911
4.41666	0.91
4.44985	0.911
4.48304	0.911
4.51623	0.918
4.54942	0.919
4.5826	0.919
4.61579	0.919
4.64898	0.919
4.68217	0.915
4.71536	0.919
4.74855	0.917
4.78174	0.917
4.81493	0.915
4.84812	0.918
4.88131	0.919
4.9145	0.919
4.94769	0.919
4.98088	0.915
5.01407	0.91
5.04726	0.91
5.08045	0.91
5.11364	0.913
5.14683	0.911
5.18002	0.915
5.21321	0.913
5.2464	0.91
5.27959	0.91
5.31278	0.907
5.34597	0.899
5.37916	0.891
5.41235	0.881
5.44554	0.874
5.47873	0.868
5.51192	0.854
5.54511	0.832
5.57829	0.816
5.61148	0.767
5.64467	0.691
5.67786	0.565
5.71105	0.458
5.74424	0.525
5.77743	0.649
5.81062	0.748
5.84381	0.806
5.877	0.811
5.91019	0.81
5.94338	0.8
5.97657	0.795
6.00976	0.776
6.04295	0.723
6.07614	0.712
6.10933	0.663
6.14252	0.572
6.17571	0.475
6.2089	0.508
6.24209	0.6
6.27528	0.498
6.30847	0.47
6.34166	0.664
6.37485	0.649
6.40804	0.562
6.44123	0.52
6.47442	0.463
6.50761	0.437
6.5408	0.351
6.57399	0.342
6.60717	0.381
6.64036	0.406
6.67355	0.552
6.70674	0.629
6.73993	0.612
6.77312	0.52
6.80631	0.465
6.8395	0.427
6.87269	0.429
6.90588	0.434
6.93907	0.407
6.97226	0.458
7.00545	0.553
7.03864	0.641
7.07183	0.659
7.10502	0.671
7.13821	0.66
7.1714	0.648
7.20459	0.608
7.23778	0.622
7.27097	0.659
7.30416	0.632
7.33735	0.557
7.37054	0.434
7.40373	0.307
7.43692	0.316
7.47011	0.419
7.5033	0.548
7.53649	0.564
7.56968	0.537
7.60287	0.573
7.63605	0.588
7.66924	0.582
7.70243	0.554
7.73562	0.502
7.76881	0.45
7.802	0.438
7.83519	0.461
7.86838	0.501
7.90157	0.5
7.93476	0.457
7.96795	0.391
8.00114	0.248
8.03433	0.241
8.06752	0.34
8.10071	0.474
8.1339	0.548
8.16709	0.534
8.20028	0.475
8.23347	0.387
8.26666	0.278
8.29985	0.255
8.33304	0.334
8.36623	0.508
8.39942	0.644
8.43261	0.708
8.4658	0.723
8.49899	0.699
8.53218	0.653
8.56537	0.609
8.59856	0.598
8.63174	0.608
8.66493	0.589
8.69812	0.552
8.73131	0.606
8.7645	0.652
8.79769	0.637
8.83088	0.6
8.86407	0.561
8.89726	0.532
8.93045	0.538
8.96364	0.569
8.99683	0.605
9.03002	0.661
9.06321	0.717
9.0964	0.741
9.12959	0.723
9.16278	0.659
9.19597	0.614
9.22916	0.665
9.26235	0.7
9.29554	0.701
9.32873	0.696
9.36192	0.672
9.39511	0.633
9.4283	0.58
9.46149	0.556
9.49468	0.55
9.52787	0.524
9.56106	0.518
9.59425	0.522
9.62744	0.545
9.66062	0.594
9.69381	0.668
9.727	0.731
9.76019	0.762
9.79338	0.766
9.82657	0.767
9.85976	0.768
9.89295	0.774
9.92614	0.782
9.95933	0.782
9.99252	0.782
10.0257	0.802
10.0589	0.831
10.0921	0.842
10.1253	0.851
10.1585	0.852
10.1917	0.854
10.2248	0.86
10.258	0.87
10.2912	0.874
10.3244	0.87
10.3576	0.867
10.3908	0.86
10.424	0.863
10.4572	0.867
10.4904	0.879
10.5236	0.89
10.5567	0.894
10.5899	0.894
10.6231	0.891
10.6563	0.885
10.6895	0.872
10.7227	0.854
10.7559	0.831
10.7891	0.81
10.8223	0.803
10.8555	0.807
10.8886	0.826
10.9218	0.84
10.955	0.852
10.9882	0.87
11.0214	0.886
11.0546	0.893
11.0878	0.891
11.121	0.887
11.1542	0.886
11.1873	0.886
11.2205	0.89
11.2537	0.889
11.2869	0.886
11.3201	0.881
11.3533	0.87
11.3865	0.862
11.4197	0.852
11.4529	0.826
11.4861	0.806
11.5192	0.767
11.5524	0.705
11.5856	0.648
11.6188	0.669
11.652	0.75
11.6852	0.818
11.7184	0.848
11.7516	0.86
11.7848	0.86
11.818	0.856
11.8511	0.856
11.8843	0.855
11.9175	0.854
11.9507	0.854
11.9839	0.854
12.0171	0.851
12.0503	0.84
12.0835	0.832
12.1167	0.816
12.1499	0.8
12.183	0.792
12.2162	0.794
12.2494	0.803
12.2826	0.811
12.3158	0.823
12.349	0.831
12.3822	0.831
12.4154	0.83
12.4486	0.826
12.4817	0.81
12.5149	0.782
12.5481	0.752
12.5813	0.728
12.6145	0.721
12.6477	0.711
12.6809	0.68
12.7141	0.651
12.7473	0.622
12.7805	0.629
12.8136	0.656
12.8468	0.701
12.88	0.721
12.9132	0.717
12.9464	0.703
12.9796	0.685
13.0128	0.684
13.046	0.685
13.0792	0.696
13.1124	0.716
13.1455	0.723
13.1787	0.727
13.2119	0.731
13.2451	0.725
13.2783	0.713
13.3115	0.703
13.3447	0.64
13.3779	0.573
13.4111	0.498
13.4442	0.431
13.4774	0.411
13.5106	0.417
13.5438	0.461
13.577	0.538
13.6102	0.62
13.6434	0.68
13.6766	0.705
13.7098	0.731
13.743	0.741
13.7761	0.76
13.8093	0.768
13.8425	0.772
13.8757	0.77
13.9089	0.768
13.9421	0.766
13.9753	0.766
14.0085	0.763
14.0417	0.758
14.0749	0.752
14.108	0.747
14.1412	0.744
14.1744	0.741
14.2076	0.732
14.2408	0.728
14.274	0.721
14.3072	0.709
14.3404	0.697
14.3736	0.685
14.4067	0.675
14.4399	0.652
14.4731	0.616
14.5063	0.606
14.5395	0.613
14.5727	0.617
14.6059	0.618
14.6391	0.618
14.6723	0.605
14.7055	0.597
14.7386	0.59
14.7718	0.572
14.805	0.565
14.8382	0.556
14.8714	0.556
14.9046	0.561
14.9378	0.569
14.971	0.569
15.0042	0.568
