Infrared Spectrum: M-NITRO CARBANILIC ACID, n-HEXYL ESTER
Formula: C13 H18 N2 O4
CAS: 93429-10-8
State: SOLID (1.8 mg / 200 mg KBr)
Class: COBLENTZ
Instrument: Not specified, most likely a grating spectrometer.
Sampling: TRANSMISSION
Resolution: 4
Origin: CITRUS EXPERIMENT STATION, UNIVERSITY OF FLORIDA (G. EDWARDS)
MICROMETERS	TRANSMITTANCE
2.027	0.317
2.06016	0.328
2.09332	0.332
2.12648	0.337
2.15964	0.338
2.1928	0.341
2.22595	0.346
2.25911	0.35
2.29227	0.353
2.32543	0.357
2.35859	0.362
2.39175	0.366
2.42491	0.377
2.45807	0.385
2.49123	0.393
2.52439	0.4
2.55754	0.401
2.5907	0.4
2.62386	0.401
2.65702	0.401
2.69018	0.401
2.72334	0.401
2.7565	0.4
2.78966	0.4
2.82282	0.398
2.85598	0.394
2.88913	0.37
2.92229	0.321
2.95545	0.18
2.98861	0.253
3.02177	0.37
3.05493	0.392
3.08809	0.402
3.12125	0.404
3.15441	0.392
3.18757	0.362
3.22072	0.38
3.25388	0.409
3.28704	0.394
3.3202	0.324
3.35336	0.236
3.38652	0.249
3.41968	0.31
3.45284	0.314
3.486	0.388
3.51916	0.45
3.55231	0.464
3.58547	0.469
3.61863	0.474
3.65179	0.481
3.68495	0.484
3.71811	0.484
3.75127	0.485
3.78443	0.489
3.81759	0.494
3.85075	0.501
3.8839	0.506
3.91706	0.51
3.95022	0.51
3.98338	0.51
4.01654	0.513
4.0497	0.512
4.08286	0.525
4.11602	0.53
4.14918	0.532
4.18234	0.536
4.21549	0.537
4.24865	0.536
4.28181	0.537
4.31497	0.538
4.34813	0.538
4.38129	0.54
4.41445	0.541
4.44761	0.542
4.48077	0.545
4.51393	0.55
4.54708	0.554
4.58024	0.56
4.6134	0.56
4.64656	0.562
4.67972	0.562
4.71288	0.562
4.74604	0.562
4.7792	0.566
4.81236	0.573
4.84552	0.573
4.87867	0.573
4.91183	0.573
4.94499	0.576
4.97815	0.578
5.01131	0.578
5.04447	0.58
5.07763	0.582
5.11079	0.589
5.14395	0.589
5.17711	0.589
5.21026	0.588
5.24342	0.586
5.27658	0.589
5.30974	0.585
5.3429	0.58
5.37606	0.572
5.40922	0.566
5.44238	0.566
5.47554	0.564
5.5087	0.553
5.54186	0.545
5.57501	0.53
5.60817	0.486
5.64133	0.456
5.67449	0.385
5.70765	0.301
5.74081	0.228
5.77397	0.2
5.80713	0.225
5.84029	0.326
5.87345	0.432
5.9066	0.496
5.93976	0.502
5.97292	0.505
6.00608	0.492
6.03924	0.477
6.0724	0.453
6.10556	0.422
6.13872	0.366
6.17188	0.285
6.20504	0.182
6.23819	0.176
6.27135	0.324
6.30451	0.366
6.33767	0.309
6.37083	0.21
6.40399	0.144
6.43715	0.162
6.47031	0.193
6.50347	0.237
6.53663	0.324
6.56978	0.35
6.60294	0.362
6.6361	0.344
6.66926	0.298
6.70242	0.249
6.73558	0.305
6.76874	0.401
6.8019	0.418
6.83506	0.417
6.86822	0.409
6.90137	0.386
6.93453	0.312
6.96769	0.302
7.00085	0.362
7.03401	0.478
7.06717	0.521
7.10033	0.545
7.13349	0.532
7.16665	0.524
7.19981	0.502
7.23296	0.452
7.26612	0.396
7.29928	0.228
7.33244	0.098
7.3656	0.096
7.39876	0.236
7.43192	0.31
7.46508	0.298
7.49824	0.216
7.5314	0.169
7.56455	0.232
7.59771	0.282
7.63087	0.249
7.66403	0.201
7.69719	0.34
7.73035	0.445
7.76351	0.449
7.79667	0.441
7.82983	0.409
7.86299	0.373
7.89614	0.312
7.9293	0.25
7.96246	0.23
7.99562	0.226
8.02878	0.126
8.06194	0.032
8.0951	0.021
8.12826	0.029
8.16142	0.053
8.19458	0.125
8.22773	0.224
8.26089	0.305
8.29405	0.386
8.32721	0.474
8.36037	0.538
8.39353	0.568
8.42669	0.585
8.45985	0.584
8.49301	0.558
8.52617	0.53
8.55932	0.558
8.59248	0.625
8.62564	0.649
8.6588	0.665
8.69196	0.669
8.72512	0.669
8.75828	0.669
8.79144	0.669
8.8246	0.669
8.85776	0.668
8.89092	0.661
8.92407	0.657
8.95723	0.622
8.99039	0.58
9.02355	0.486
9.05671	0.436
9.08987	0.477
9.12303	0.482
9.15619	0.418
9.18935	0.316
9.22251	0.192
9.25566	0.162
9.28882	0.196
9.32198	0.316
9.35514	0.429
9.3883	0.512
9.42146	0.569
9.45462	0.618
9.48778	0.628
9.52094	0.629
9.5541	0.628
9.58725	0.637
9.62041	0.669
9.65357	0.701
9.68673	0.71
9.71989	0.718
9.75305	0.713
9.78621	0.7
9.81937	0.68
9.85253	0.678
9.88569	0.69
9.91884	0.693
9.952	0.69
9.98516	0.662
10.0183	0.67
10.0515	0.722
10.0846	0.728
10.1178	0.722
10.151	0.721
10.1841	0.725
10.2173	0.724
10.2504	0.713
10.2836	0.672
10.3168	0.644
10.3499	0.658
10.3831	0.709
10.4162	0.73
10.4494	0.749
10.4825	0.765
10.5157	0.781
10.5489	0.786
10.582	0.788
10.6152	0.788
10.6483	0.785
10.6815	0.785
10.7147	0.784
10.7478	0.78
10.781	0.773
10.8141	0.752
10.8473	0.713
10.8805	0.71
10.9136	0.717
10.9468	0.749
10.9799	0.769
11.0131	0.778
11.0463	0.778
11.0794	0.76
11.1126	0.738
11.1457	0.697
11.1789	0.622
11.212	0.54
11.2452	0.514
11.2784	0.629
11.3115	0.729
11.3447	0.785
11.3778	0.812
11.411	0.829
11.4442	0.838
11.4773	0.84
11.5105	0.84
11.5436	0.84
11.5768	0.842
11.61	0.842
11.6431	0.838
11.6763	0.84
11.7094	0.84
11.7426	0.84
11.7757	0.836
11.8089	0.834
11.8421	0.829
11.8752	0.813
11.9084	0.8
11.9415	0.778
11.9747	0.721
12.0079	0.614
12.041	0.456
12.0742	0.317
12.1073	0.344
12.1405	0.525
12.1737	0.666
12.2068	0.732
12.24	0.749
12.2731	0.742
12.3063	0.72
12.3395	0.681
12.3726	0.598
12.4058	0.512
12.4389	0.512
12.4721	0.616
12.5052	0.725
12.5384	0.785
12.5716	0.817
12.6047	0.821
12.6379	0.82
12.671	0.812
12.7042	0.802
12.7374	0.797
12.7705	0.782
12.8037	0.765
12.8368	0.732
12.87	0.681
12.9032	0.612
12.9363	0.542
12.9695	0.506
13.0026	0.544
13.0358	0.628
13.069	0.705
13.1021	0.758
13.1353	0.789
13.1684	0.798
13.2016	0.8
13.2347	0.796
13.2679	0.781
13.3011	0.752
13.3342	0.705
13.3674	0.61
13.4005	0.482
13.4337	0.376
13.4669	0.341
13.5	0.437
13.5332	0.526
13.5663	0.589
13.5995	0.645
13.6327	0.653
13.6658	0.656
13.699	0.68
13.7321	0.718
13.7653	0.769
13.7984	0.79
13.8316	0.808
13.8648	0.821
13.8979	0.822
13.9311	0.814
13.9642	0.809
13.9974	0.801
14.0306	0.798
14.0637	0.789
14.0969	0.782
14.13	0.765
14.1632	0.757
14.1964	0.748
14.2295	0.73
14.2627	0.72
14.2958	0.709
14.329	0.684
14.3622	0.664
14.3953	0.644
14.4285	0.614
14.4616	0.588
14.4948	0.574
14.5279	0.56
14.5611	0.556
14.5943	0.554
14.6274	0.56
14.6606	0.57
14.6937	0.586
14.7269	0.609
14.7601	0.642
14.7932	0.67
14.8264	0.69
14.8595	0.714
14.8927	0.726
14.9259	0.741
14.959	0.752
14.9922	0.753
