Infrared Spectrum: O-NITRO CARBANILIC ACID, BORNYL ESTER
Formula: C17 H22 N2 O4
CAS: 93437-07-1
State: SOLID (1.9 mg / 100 mg KBr)
Class: COBLENTZ
Instrument: Not specified, most likely a grating spectrometer.
Sampling: TRANSMISSION
Resolution: 4
Origin: CITRUS EXPERIMENT STATION, UNIVERSITY OF FLORIDA (G. EDWARDS)
MICROMETERS	TRANSMITTANCE
2.046	0.529
2.07919	0.531
2.11238	0.538
2.14558	0.541
2.17877	0.542
2.21196	0.547
2.24515	0.55
2.27835	0.555
2.31154	0.558
2.34473	0.558
2.37792	0.567
2.41112	0.571
2.44431	0.575
2.4775	0.581
2.51069	0.585
2.54389	0.59
2.57708	0.593
2.61027	0.594
2.64346	0.597
2.67666	0.599
2.70985	0.602
2.74304	0.602
2.77623	0.605
2.80943	0.603
2.84262	0.599
2.87581	0.595
2.909	0.574
2.9422	0.424
2.97539	0.558
3.00858	0.614
3.04177	0.623
3.07497	0.63
3.10816	0.632
3.14135	0.632
3.17454	0.625
3.20773	0.63
3.24093	0.636
3.27412	0.638
3.30731	0.603
3.3405	0.446
3.3737	0.361
3.40689	0.469
3.44008	0.49
3.47327	0.595
3.50647	0.655
3.53966	0.671
3.57285	0.676
3.60604	0.679
3.63924	0.684
3.67243	0.69
3.70562	0.692
3.73881	0.695
3.77201	0.698
3.8052	0.702
3.83839	0.703
3.87158	0.707
3.90478	0.71
3.93797	0.711
3.97116	0.712
4.00435	0.711
4.03755	0.716
4.07074	0.715
4.10393	0.714
4.13712	0.719
4.17032	0.72
4.20351	0.732
4.2367	0.736
4.26989	0.736
4.30308	0.739
4.33628	0.739
4.36947	0.738
4.40266	0.738
4.43585	0.739
4.46905	0.742
4.50224	0.743
4.53543	0.743
4.56862	0.748
4.60182	0.751
4.63501	0.752
4.6682	0.757
4.70139	0.757
4.73459	0.759
4.76778	0.764
4.80097	0.767
4.83416	0.767
4.86736	0.768
4.90055	0.768
4.93374	0.768
4.96693	0.768
5.00013	0.769
5.03332	0.769
5.06651	0.771
5.0997	0.771
5.1329	0.771
5.16609	0.772
5.19928	0.773
5.23247	0.776
5.26567	0.776
5.29886	0.775
5.33205	0.768
5.36524	0.768
5.39844	0.768
5.43163	0.755
5.46482	0.753
5.49801	0.753
5.5312	0.746
5.5644	0.742
5.59759	0.719
5.63078	0.684
5.66397	0.594
5.69717	0.296
5.73036	0.178
5.76355	0.438
5.79674	0.618
5.82994	0.7
5.86313	0.732
5.89632	0.746
5.92951	0.748
5.96271	0.743
5.9959	0.742
6.02909	0.73
6.06228	0.73
6.09548	0.708
6.12867	0.672
6.16186	0.529
6.19505	0.32
6.22825	0.545
6.26144	0.546
6.29463	0.275
6.32782	0.605
6.36102	0.691
6.39421	0.65
6.4274	0.621
6.46059	0.505
6.49379	0.498
6.52698	0.353
6.56017	0.175
6.59336	0.16
6.62655	0.235
6.65975	0.453
6.69294	0.582
6.72613	0.605
6.75932	0.614
6.79252	0.602
6.82571	0.462
6.8589	0.345
6.89209	0.452
6.92529	0.333
6.95848	0.365
6.99167	0.469
7.02486	0.601
7.05806	0.659
7.09125	0.686
7.12444	0.68
7.15763	0.619
7.19083	0.617
7.22402	0.639
7.25721	0.635
7.2904	0.63
7.3236	0.643
7.35679	0.599
7.38998	0.466
7.42317	0.144
7.45637	0.16
7.48956	0.393
7.52275	0.531
7.55594	0.454
7.58914	0.519
7.62233	0.523
7.65552	0.522
7.68871	0.472
7.7219	0.433
7.7551	0.355
7.78829	0.357
7.82148	0.408
7.85467	0.497
7.88787	0.55
7.92106	0.542
7.95425	0.448
7.98744	0.255
8.02064	0.162
8.05383	0.297
8.08702	0.472
8.12021	0.582
8.15341	0.598
8.1866	0.571
8.21979	0.489
8.25298	0.344
8.28618	0.247
8.31937	0.304
8.35256	0.42
8.38575	0.567
8.41895	0.644
8.45214	0.699
8.48533	0.71
8.51852	0.68
8.55172	0.577
8.58491	0.469
8.6181	0.574
8.65129	0.648
8.68449	0.511
8.71768	0.558
8.75087	0.638
8.78406	0.686
8.81725	0.731
8.85045	0.748
8.88364	0.732
8.91683	0.664
8.95002	0.488
8.98322	0.533
9.01641	0.655
9.0496	0.718
9.08279	0.723
9.11599	0.688
9.14918	0.618
9.18237	0.591
9.21556	0.618
9.24876	0.655
9.28195	0.716
9.31514	0.736
9.34833	0.72
9.38153	0.639
9.41472	0.492
9.44791	0.39
9.4811	0.481
9.5143	0.595
9.54749	0.614
9.58068	0.59
9.61387	0.654
9.64707	0.69
9.68026	0.695
9.71345	0.751
9.74664	0.781
9.77984	0.792
9.81303	0.791
9.84622	0.75
9.87941	0.75
9.9126	0.791
9.9458	0.803
9.97899	0.805
10.0122	0.812
10.0454	0.829
10.0786	0.824
10.1118	0.797
10.145	0.75
10.1781	0.753
10.2113	0.72
10.2445	0.672
10.2777	0.736
10.3109	0.797
10.3441	0.824
10.3773	0.828
10.4105	0.809
10.4437	0.781
10.4769	0.783
10.5101	0.801
10.5433	0.824
10.5765	0.825
10.6096	0.823
10.6428	0.819
10.676	0.815
10.7092	0.839
10.7424	0.852
10.7756	0.859
10.8088	0.86
10.842	0.861
10.8752	0.856
10.9084	0.859
10.9416	0.867
10.9748	0.869
11.008	0.867
11.0411	0.863
11.0743	0.863
11.1075	0.86
11.1407	0.857
11.1739	0.857
11.2071	0.855
11.2403	0.864
11.2735	0.869
11.3067	0.872
11.3399	0.861
11.3731	0.835
11.4063	0.825
11.4395	0.829
11.4726	0.791
11.5058	0.715
11.539	0.72
11.5722	0.753
11.6054	0.752
11.6386	0.715
11.6718	0.736
11.705	0.787
11.7382	0.825
11.7714	0.851
11.8046	0.856
11.8378	0.861
11.871	0.861
11.9042	0.857
11.9373	0.859
11.9705	0.861
12.0037	0.865
12.0369	0.864
12.0701	0.86
12.1033	0.849
12.1365	0.835
12.1697	0.809
12.2029	0.776
12.2361	0.789
12.2693	0.821
12.3025	0.851
12.3357	0.861
12.3688	0.864
12.402	0.863
12.4352	0.852
12.4684	0.845
12.5016	0.844
12.5348	0.847
12.568	0.845
12.6012	0.841
12.6344	0.821
12.6676	0.76
12.7008	0.765
12.734	0.772
12.7672	0.684
12.8003	0.566
12.8335	0.714
12.8667	0.8
12.8999	0.821
12.9331	0.811
12.9663	0.76
12.9995	0.67
13.0327	0.686
13.0659	0.735
13.0991	0.773
13.1323	0.769
13.1655	0.747
13.1987	0.757
13.2318	0.789
13.265	0.817
13.2982	0.82
13.3314	0.811
13.3646	0.784
13.3978	0.704
13.431	0.565
13.4642	0.417
13.4974	0.425
13.5306	0.466
13.5638	0.541
13.597	0.585
13.6302	0.703
13.6633	0.763
13.6965	0.795
13.7297	0.815
13.7629	0.828
13.7961	0.839
13.8293	0.843
13.8625	0.845
13.8957	0.848
13.9289	0.851
13.9621	0.851
13.9953	0.851
14.0285	0.851
14.0617	0.851
14.0949	0.852
14.128	0.852
14.1612	0.851
14.1944	0.849
14.2276	0.847
14.2608	0.841
14.294	0.84
14.3272	0.833
14.3604	0.82
14.3936	0.809
14.4268	0.799
14.46	0.797
14.4932	0.797
14.5264	0.8
14.5595	0.803
14.5927	0.796
14.6259	0.789
14.6591	0.764
14.6923	0.74
14.7255	0.73
14.7587	0.732
14.7919	0.748
14.8251	0.78
14.8583	0.788
14.8915	0.785
14.9247	0.787
14.9579	0.804
14.991	0.815
