Infrared Spectrum: O-NITRO CARBANILIC ACID, FENCHYL ESTER
Formula: C17 H22 N2 O4
CAS: 93437-08-2
State: SOLID (1.5 mg / 100 mg KBr)
Class: COBLENTZ
Instrument: Not specified, most likely a grating spectrometer.
Sampling: TRANSMISSION
Resolution: 4
Origin: CITRUS EXPERIMENT STATION, UNIVERSITY OF FLORIDA (G. EDWARDS)
MICROMETERS	TRANSMITTANCE
2.04	0.763
2.07313	0.767
2.10626	0.771
2.13938	0.769
2.17251	0.772
2.20564	0.772
2.23877	0.775
2.27189	0.779
2.30502	0.781
2.33815	0.784
2.37128	0.785
2.4044	0.788
2.43753	0.789
2.47066	0.791
2.50379	0.793
2.53691	0.795
2.57004	0.799
2.60317	0.803
2.6363	0.803
2.66942	0.803
2.70255	0.801
2.73568	0.799
2.76881	0.796
2.80193	0.793
2.83506	0.793
2.86819	0.788
2.90132	0.787
2.93444	0.761
2.96757	0.48
3.0007	0.743
3.03383	0.788
3.06695	0.803
3.10008	0.805
3.13321	0.804
3.16634	0.8
3.19946	0.791
3.23259	0.8
3.26572	0.801
3.29885	0.8
3.33197	0.706
3.3651	0.398
3.39823	0.539
3.43136	0.625
3.46448	0.594
3.49761	0.715
3.53074	0.799
3.56387	0.8
3.59699	0.805
3.63012	0.809
3.66325	0.812
3.69638	0.816
3.72951	0.816
3.76263	0.817
3.79576	0.816
3.82889	0.82
3.86202	0.817
3.89514	0.82
3.92827	0.821
3.9614	0.824
3.99453	0.82
4.02765	0.82
4.06078	0.821
4.09391	0.823
4.12704	0.812
4.16016	0.815
4.19329	0.815
4.22642	0.816
4.25955	0.821
4.29267	0.823
4.3258	0.823
4.35893	0.823
4.39206	0.823
4.42518	0.816
4.45831	0.815
4.49144	0.816
4.52457	0.819
4.55769	0.82
4.59082	0.819
4.62395	0.825
4.65708	0.821
4.6902	0.823
4.72333	0.827
4.75646	0.825
4.78959	0.825
4.82271	0.825
4.85584	0.823
4.88897	0.821
4.9221	0.821
4.95522	0.821
4.98835	0.821
5.02148	0.817
5.05461	0.809
5.08773	0.811
5.12086	0.813
5.15399	0.813
5.18712	0.813
5.22024	0.811
5.25337	0.813
5.2865	0.815
5.31963	0.812
5.35276	0.809
5.38588	0.8
5.41901	0.8
5.45214	0.78
5.48527	0.787
5.51839	0.791
5.55152	0.78
5.58465	0.771
5.61778	0.738
5.6509	0.676
5.68403	0.373
5.71716	0.178
5.75029	0.486
5.78341	0.662
5.81654	0.724
5.84967	0.74
5.8828	0.752
5.91592	0.757
5.94905	0.763
5.98218	0.763
6.01531	0.755
6.04843	0.738
6.08156	0.732
6.11469	0.694
6.14782	0.615
6.18094	0.336
6.21407	0.445
6.2472	0.594
6.28033	0.388
6.31345	0.26
6.34658	0.646
6.37971	0.682
6.41284	0.656
6.44596	0.601
6.47909	0.61
6.51222	0.554
6.54535	0.211
6.57847	0.102
6.6116	0.074
6.64473	0.131
6.67786	0.293
6.71098	0.498
6.74411	0.557
6.77724	0.493
6.81037	0.421
6.84349	0.331
6.87662	0.311
6.90975	0.394
6.94288	0.231
6.97601	0.232
7.00913	0.303
7.04226	0.453
7.07539	0.49
7.10852	0.55
7.14164	0.59
7.17477	0.577
7.2079	0.574
7.24103	0.583
7.27415	0.579
7.30728	0.557
7.34041	0.57
7.37354	0.539
7.40666	0.271
7.43979	0.082
7.47292	0.283
7.50605	0.445
7.53917	0.457
7.5723	0.292
7.60543	0.413
7.63856	0.438
7.67168	0.446
7.70481	0.442
7.73794	0.421
7.77107	0.363
7.80419	0.281
7.83732	0.248
7.87045	0.303
7.90358	0.393
7.9367	0.482
7.96983	0.396
8.00296	0.115
8.03609	0.061
8.06921	0.172
8.10234	0.301
8.13547	0.461
8.1686	0.519
8.20172	0.507
8.23485	0.502
8.26798	0.421
8.30111	0.251
8.33423	0.074
8.36736	0.062
8.40049	0.211
8.43362	0.39
8.46674	0.484
8.49987	0.557
8.533	0.582
8.56613	0.481
8.59926	0.377
8.63238	0.373
8.66551	0.468
8.69864	0.281
8.73177	0.436
8.76489	0.569
8.79802	0.63
8.83115	0.663
8.86428	0.683
8.8974	0.687
8.93053	0.672
8.96366	0.623
8.99679	0.617
9.02991	0.651
9.06304	0.632
9.09617	0.625
9.1293	0.574
9.16242	0.482
9.19555	0.389
9.22868	0.43
9.26181	0.511
9.29493	0.601
9.32806	0.617
9.36119	0.601
9.39432	0.551
9.42744	0.382
9.46057	0.172
9.4937	0.158
9.52683	0.313
9.55995	0.421
9.59308	0.398
9.62621	0.484
9.65934	0.565
9.69246	0.609
9.72559	0.573
9.75872	0.61
9.79185	0.656
9.82497	0.655
9.8581	0.597
9.89123	0.614
9.92436	0.676
9.95748	0.682
9.99061	0.662
10.0237	0.678
10.0569	0.688
10.09	0.67
10.1231	0.594
10.1562	0.497
10.1894	0.543
10.2225	0.594
10.2556	0.5
10.2888	0.473
10.3219	0.586
10.355	0.646
10.3881	0.644
10.4213	0.658
10.4544	0.671
10.4875	0.639
10.5207	0.684
10.5538	0.714
10.5869	0.707
10.62	0.69
10.6532	0.712
10.6863	0.72
10.7194	0.71
10.7525	0.684
10.7857	0.694
10.8188	0.72
10.8519	0.73
10.8851	0.731
10.9182	0.731
10.9513	0.723
10.9844	0.723
11.0176	0.739
11.0507	0.742
11.0838	0.743
11.1169	0.743
11.1501	0.743
11.1832	0.74
11.2163	0.731
11.2495	0.712
11.2826	0.726
11.3157	0.732
11.3488	0.727
11.382	0.727
11.4151	0.711
11.4482	0.647
11.4814	0.586
11.5145	0.656
11.5476	0.65
11.5807	0.617
11.6139	0.521
11.647	0.577
11.6801	0.652
11.7132	0.663
11.7464	0.664
11.7795	0.671
11.8126	0.683
11.8458	0.691
11.8789	0.7
11.912	0.71
11.9451	0.716
11.9783	0.723
12.0114	0.724
12.0445	0.722
12.0776	0.716
12.1108	0.695
12.1439	0.702
12.177	0.719
12.2102	0.727
12.2433	0.723
12.2764	0.718
12.3095	0.72
12.3427	0.712
12.3758	0.692
12.4089	0.65
12.4421	0.619
12.4752	0.656
12.5083	0.698
12.5414	0.722
12.5746	0.728
12.6077	0.732
12.6408	0.73
12.6739	0.723
12.7071	0.711
12.7402	0.667
12.7733	0.511
12.8065	0.569
12.8396	0.683
12.8727	0.712
12.9058	0.718
12.939	0.715
12.9721	0.703
13.0052	0.676
13.0383	0.607
13.0715	0.507
13.1046	0.563
13.1377	0.639
13.1709	0.68
13.204	0.696
13.2371	0.702
13.2702	0.704
13.3034	0.702
13.3365	0.694
13.3696	0.676
13.4028	0.639
13.4359	0.526
13.469	0.32
13.5021	0.253
13.5353	0.367
13.5684	0.486
13.6015	0.591
13.6346	0.643
13.6678	0.676
13.7009	0.687
13.734	0.694
13.7672	0.702
13.8003	0.703
13.8334	0.703
13.8665	0.704
13.8997	0.71
13.9328	0.707
13.9659	0.706
13.999	0.704
14.0322	0.703
14.0653	0.702
14.0984	0.699
14.1316	0.696
14.1647	0.695
14.1978	0.694
14.2309	0.692
14.2641	0.688
14.2972	0.68
14.3303	0.668
14.3634	0.66
14.3966	0.628
14.4297	0.599
14.4628	0.573
14.496	0.565
14.5291	0.57
14.5622	0.589
14.5953	0.598
14.6285	0.597
14.6616	0.59
14.6947	0.575
14.7279	0.57
14.761	0.569
14.7941	0.57
14.8272	0.561
14.8604	0.555
14.8935	0.546
14.9266	0.529
14.9597	0.529
14.9929	0.543
15.026	0.549
