Infrared Spectrum: THIAZOLO[5,4-d]PYRIMIDINE, 5-AMINO-2-[(2-CHLOROETHYL)THIO]-7-(ETHYLAMINO)-
Formula: C9 H12 Cl N5 S2
CAS: 93457-19-3
State: SOLID (1.0 mg / 650 mg KBr DISC)
Class: COBLENTZ III
Instrument: PERKIN-ELMER 21 (GRATING)
Instrument parameters: FILTER CHANGE ABOUT 1020 CM^-^1
Sampling: TRANSMISSION
Resolution: 4
Origin: SOUTHERN RESEARCH INSTITUTE
1/CM	TRANSMITTANCE
604.865	0.66
613.324	0.654
621.783	0.6491
630.243	0.6431
638.702	0.6402
647.161	0.631
655.62	0.63
664.079	0.629
672.539	0.629
680.998	0.6234
689.457	0.6079
697.916	0.5965
706.375	0.6306
714.835	0.7064
723.294	0.72
731.753	0.72
740.212	0.721
748.671	0.7244
757.131	0.732
765.59	0.7289
774.049	0.7059
782.508	0.6428
790.967	0.703
799.427	0.776
807.886	0.775
816.345	0.7703
824.804	0.7662
833.263	0.7482
841.723	0.7275
850.182	0.723
858.641	0.7071
867.1	0.6764
875.559	0.7031
884.019	0.7645
892.478	0.7711
900.937	0.763
909.396	0.7489
917.855	0.7287
926.315	0.7107
934.774	0.7137
943.233	0.7569
951.692	0.784
960.151	0.7658
968.611	0.7559
977.07	0.749
985.529	0.743
993.988	0.7273
1002.45	0.6679
1010.91	0.5869
1019.37	0.5916
1027.83	0.613
1036.28	0.6345
1044.74	0.7001
1053.2	0.7434
1061.66	0.7399
1070.12	0.7145
1078.58	0.6755
1087.04	0.676
1095.5	0.6716
1103.96	0.6474
1112.42	0.6164
1120.88	0.6242
1129.34	0.7219
1137.79	0.744
1146.25	0.739
1154.71	0.7319
1163.17	0.73
1171.63	0.7359
1180.09	0.744
1188.55	0.743
1197.01	0.739
1205.47	0.7284
1213.93	0.7018
1222.39	0.6684
1230.85	0.706
1239.31	0.707
1247.76	0.7139
1256.22	0.6965
1264.68	0.665
1273.14	0.6099
1281.6	0.5672
1290.06	0.5733
1298.52	0.5984
1306.98	0.6322
1315.44	0.6528
1323.9	0.6279
1332.36	0.5597
1340.82	0.5351
1349.27	0.584
1357.73	0.66
1366.19	0.69
1374.65	0.64
1383.11	0.6095
1391.57	0.6072
1400.03	0.5921
1408.49	0.5305
1416.95	0.4736
1425.41	0.3928
1433.87	0.319
1442.33	0.2615
1450.79	0.2564
1459.24	0.2797
1467.7	0.3011
1476.16	0.3955
1484.62	0.554
1493.08	0.6526
1501.54	0.6591
1510	0.6121
1518.46	0.5724
1526.92	0.4803
1535.38	0.3889
1543.84	0.2098
1552.3	0.1455
1560.75	0.2126
1569.21	0.2461
1577.67	0.2756
1586.13	0.2084
1594.59	0.1956
1603.05	0.2462
1611.51	0.2824
1619.97	0.3047
1628.43	0.3301
1636.89	0.4359
1645.35	0.5247
1653.81	0.6376
1662.27	0.7083
1670.72	0.8094
1679.18	0.8742
1687.64	0.9332
1696.1	0.9467
1704.56	0.9602
1713.02	0.9702
1721.48	0.976
1729.94	0.976
1738.4	0.975
1746.86	0.9751
1755.32	0.974
1763.78	0.974
1772.23	0.97
1780.69	0.969
1789.15	0.968
1797.61	0.963
1806.07	0.962
1814.53	0.9575
1822.99	0.956
1831.45	0.952
1839.91	0.95
1848.37	0.9467
1856.83	0.9437
1865.29	0.9415
1873.75	0.9388
1882.2	0.932
1890.66	0.93
1899.12	0.927
1907.58	0.923
1916.04	0.921
1924.5	0.917
1932.96	0.913
1941.42	0.91
1949.88	0.906
1958.34	0.904
1966.8	0.904
1975.26	0.9037
1983.71	0.901
1992.17	0.898
2000.63	0.898
2009.09	0.894
2017.55	0.8885
2026.01	0.884
2034.47	0.884
2042.93	0.8815
2051.39	0.878
2059.85	0.876
2068.31	0.875
2076.77	0.874
2085.23	0.8715
2093.68	0.871
2102.14	0.8695
2110.6	0.867
2119.06	0.863
2127.52	0.861
2135.98	0.86
2144.44	0.8605
2152.9	0.8605
2161.36	0.8585
2169.82	0.858
2178.28	0.856
2186.74	0.856
2195.19	0.853
2203.65	0.8535
2212.11	0.852
2220.57	0.85
2229.03	0.849
2237.49	0.848
2245.95	0.846
2254.41	0.847
2262.87	0.847
2271.33	0.847
2279.79	0.846
2288.25	0.844
2296.71	0.844
2305.16	0.846
2313.62	0.8465
2322.08	0.844
2330.54	0.848
2339	0.848
2347.46	0.848
2355.92	0.847
2364.38	0.8435
2372.84	0.843
2381.3	0.841
2389.76	0.837
2398.22	0.837
2406.67	0.837
2415.13	0.831
2423.59	0.83
2432.05	0.83
2440.51	0.829
2448.97	0.8295
2457.43	0.827
2465.89	0.829
2474.35	0.828
2482.81	0.825
2491.27	0.823
2499.73	0.821
2508.19	0.821
2516.64	0.819
2525.1	0.8185
2533.56	0.817
2542.02	0.816
2550.48	0.816
2558.94	0.815
2567.4	0.8135
2575.86	0.809
2584.32	0.8035
2592.78	0.8025
2601.24	0.8015
2609.7	0.792
2618.15	0.791
2626.61	0.792
2635.07	0.791
2643.53	0.7835
2651.99	0.7795
2660.45	0.774
2668.91	0.765
2677.37	0.7575
2685.83	0.753
2694.29	0.751
2702.75	0.7525
2711.21	0.7484
2719.67	0.746
2728.12	0.746
2736.58	0.746
2745.04	0.746
2753.5	0.747
2761.96	0.749
2770.42	0.745
2778.88	0.743
2787.34	0.738
2795.8	0.733
2804.26	0.7325
2812.72	0.7225
2821.18	0.7184
2829.63	0.711
2838.09	0.7035
2846.55	0.6909
2855.01	0.686
2863.47	0.684
2871.93	0.685
2880.39	0.681
2888.85	0.6705
2897.31	0.6544
2905.77	0.639
2914.23	0.636
2922.69	0.633
2931.15	0.632
2939.6	0.6315
2948.06	0.6295
2956.52	0.6391
2964.98	0.66
2973.44	0.677
2981.9	0.688
2990.36	0.69
2998.82	0.688
3007.28	0.6835
3015.74	0.682
3024.2	0.6725
3032.66	0.666
3041.11	0.659
3049.57	0.6484
3058.03	0.6375
3066.49	0.629
3074.95	0.619
3083.41	0.611
3091.87	0.607
3100.33	0.603
3108.79	0.5965
3117.25	0.588
3125.71	0.5735
3134.17	0.559
3142.63	0.5455
3151.08	0.533
3159.54	0.5235
3168	0.518
3176.46	0.513
3184.92	0.5165
3193.38	0.522
3201.84	0.528
3210.3	0.53
3218.76	0.53
3227.22	0.5265
3235.68	0.5215
3244.14	0.5125
3252.59	0.5005
3261.05	0.4934
3269.51	0.4784
3277.97	0.4585
3286.43	0.442
3294.89	0.4325
3303.35	0.424
3311.81	0.4235
3320.27	0.4245
3328.73	0.428
3337.19	0.4346
3345.65	0.443
3354.11	0.4451
3362.56	0.447
3371.02	0.446
3379.48	0.443
3387.94	0.438
3396.4	0.438
3404.86	0.445
3413.32	0.4576
3421.78	0.4725
3430.24	0.4835
3438.7	0.4895
3447.16	0.4985
3455.62	0.504
3464.07	0.51
3472.53	0.5225
3480.99	0.5381
3489.45	0.559
3497.91	0.5796
3506.37	0.6026
3514.83	0.6181
3523.29	0.635
3531.75	0.6527
3540.21	0.666
3548.67	0.6755
3557.13	0.687
3565.59	0.6981
3574.04	0.708
3582.5	0.7125
3590.96	0.721
3599.42	0.726
3607.88	0.7345
3616.34	0.74
3624.8	0.7465
3633.26	0.7495
3641.72	0.75
3650.18	0.751
3658.64	0.751
3667.1	0.751
3675.55	0.751
3684.01	0.751
3692.47	0.7515
3700.93	0.751
3709.39	0.751
3717.85	0.751
3726.31	0.751
3734.77	0.75
3743.23	0.751
3751.69	0.751
3760.15	0.751
3768.61	0.751
3777.07	0.751
3785.52	0.751
3793.98	0.75
3802.44	0.749
3810.9	0.747
3819.36	0.744
3827.82	0.744
3836.28	0.744
3844.74	0.741
3853.2	0.742
3861.66	0.741
3870.12	0.741
3878.58	0.741
3887.03	0.74
3895.49	0.738
3903.95	0.738
