Infrared Spectrum: 2,6-Diethylpyridine
Formula: C 9 H 13 N
CAS: 935-28-4
State: gas
Instrument: HP-GC/MS/IRD
Origin: NIST Mass Spectrometry Data Center
1/CM	ABSORBANCE
550	0.0004806
562	0.0002646
574	4.86e-05
586	0.0001404
598	0.0001242
610	4.59e-05
622	4.05e-05
634	3.24e-05
646	5.67e-05
658	0.0001755
670	0.0002295
682	0.0002484
694	0.0004131
706	0.0003483
718	0.0004752
730	0.0018198
742	0.0045765
754	0.0048384
766	0.0030645
778	0.0023733
790	0.0028377
802	0.0035721
814	0.0038745
826	0.0027594
838	0.0013851
850	0.0007722
862	0.0010557
874	0.0014688
886	0.0008127
898	0.0003321
910	0.0001917
922	0.0001755
934	0.0001917
946	0.0002511
958	0.0002808
970	0.0004617
982	0.001242
994	0.0017334
1006	0.0012015
1018	0.0008937
1030	0.001242
1042	0.001593
1054	0.0019683
1066	0.0021978
1078	0.0016308
1090	0.0012879
1102	0.001134
1114	0.0007587
1126	0.0005832
1138	0.0008613
1150	0.0022167
1162	0.0018009
1174	0.0008343
1186	0.001161
1198	0.0025542
1210	0.0028188
1222	0.0019413
1234	0.0017118
1246	0.0016659
1258	0.0016038
1270	0.0015039
1282	0.0012231
1294	0.0009396
1306	0.0009801
1318	0.001161
1330	0.0009936
1342	0.0007317
1354	0.0007614
1366	0.0010638
1378	0.0014823
1390	0.001539
1402	0.0019062
1414	0.0027486
1426	0.0043443
1438	0.0080244
1450	0.0153792
1462	0.0169101
1474	0.0093582
1486	0.0034857
1498	0.0020547
1510	0.0016335
1522	0.0015498
1534	0.0017253
1546	0.0024975
1558	0.0056079
1570	0.0165321
1582	0.027
1594	0.0136701
1606	0.0047061
1618	0.0017577
1630	0.0010179
1642	0.000756
1654	0.0005967
1666	0.0004455
1678	0.000405
1690	0.0003483
1702	0.0003348
1714	0.0002862
1726	0.0002619
1738	0.0002295
1750	0.0002592
1762	0.0003807
1774	0.0004482
1786	0.0003132
1798	0.0001674
1810	0.0001593
1822	0.0001377
1834	0.0001485
1846	0.0002592
1858	0.0005103
1870	0.0004239
1882	0.0001998
1894	0.0001269
1906	0.0001431
1918	0.0001701
1930	0.0002295
1942	0.0004509
1954	0.0004941
1966	0.00027
1978	0.0001323
1990	0.0001269
2002	9.45e-05
2014	0.0001242
2026	0.0001215
2038	0.000135
2050	0.0001188
2062	9.72e-05
2074	8.1e-05
2086	7.29e-05
2098	8.91e-05
2110	8.1e-05
2122	8.64e-05
2134	9.72e-05
2146	0.0001242
2158	0.0001161
2170	0.0001242
2182	0.000108
2194	0.0001404
2206	0.0001296
2218	0.0001242
2230	0.0001188
2242	9.99e-05
2254	0.0001323
2266	0.0001566
2278	0.0001755
2290	0.0001836
2302	0.0001809
2314	0.0001998
2326	0.0001566
2338	0.0001242
2350	9.72e-05
2362	7.83e-05
2374	9.72e-05
2386	5.13e-05
2398	4.86e-05
2410	8.1e-05
2422	0.0001161
2434	0.0001323
2446	0.0001161
2458	5.67e-05
2470	5.4e-05
2482	2.7e-06
2494	5.67e-05
2506	7.02e-05
2518	5.4e-05
2530	6.48e-05
2542	0.0001053
2554	9.45e-05
2566	8.64e-05
2578	9.72e-05
2590	9.99e-05
2602	6.75e-05
2614	0.000108
2626	0.0001593
2638	0.0001971
2650	0.0002538
2662	0.0002727
2674	0.0002106
2686	0.0002025
2698	0.0002322
2710	0.0002511
2722	0.0002916
2734	0.0003591
2746	0.0004023
2758	0.0003942
2770	0.0004725
2782	0.0005994
2794	0.0007101
2806	0.0008937
2818	0.00108
2830	0.001539
2842	0.0020979
2854	0.0031347
2866	0.0048492
2878	0.0071901
2890	0.0092853
2902	0.0091449
2914	0.0089721
2926	0.0107919
2938	0.0162135
2950	0.0176526
2962	0.0175662
2974	0.0228258
2986	0.0179118
2998	0.0086211
3010	0.0055971
3022	0.0041364
3034	0.0029565
3046	0.0031158
3058	0.0061776
3070	0.0077328
3082	0.0040446
3094	0.0014094
3106	0.0009504
3118	0.00081
3130	0.0007722
3142	0.0008208
3154	0.0008451
3166	0.0006507
3178	0.0004563
3190	0.0003105
3202	0.0002619
3214	0.00027
3226	0.0001458
3238	0.0001242
3250	0.0001107
3262	6.48e-05
3274	6.21e-05
3286	5.13e-05
3298	5.94e-05
3310	6.75e-05
3322	4.59e-05
3334	9.72e-05
3346	2.97e-05
3358	2.43e-05
3370	8.1e-05
3382	6.21e-05
3394	2.7e-05
3406	7.83e-05
3418	6.75e-05
3430	6.48e-05
3442	0
3454	1.08e-05
3466	2.7e-05
3478	4.05e-05
3490	5.4e-06
3502	3.78e-05
3514	5.67e-05
3526	6.21e-05
3538	8.64e-05
3550	8.91e-05
3562	4.32e-05
3574	4.32e-05
3586	7.56e-05
3598	0.0001134
3610	7.56e-05
3622	0.0001107
3634	0.0001026
3646	7.56e-05
3658	7.29e-05
3670	6.75e-05
3682	8.1e-05
3694	9.45e-05
3706	0.0001323
3718	0.0001323
3730	9.99e-05
3742	0.0001188
3754	0.0001242
3766	0.0001485
3778	0.0001404
3790	0.0001161
3802	6.21e-05
3814	8.64e-05
3826	9.99e-05
3838	0.0001728
