Infrared Spectrum: 2-Furanpropionic acid
Formula: C7 H8 O3
CAS: 935-13-7
State: LIQUID (NEAT)
Class: COBLENTZ III
Instrument: DOW KBr FOREPRISM-GRATING
Instrument parameters: BLAZED AT 3.5, 12.0, 20.0 MICRON AND CHANGED AT 5.0, 7.5, 14.9 MICRON
Path length: SMEAR
Resolution: 2
Origin: DOW CHEMICAL COMPANY
1/CM	TRANSMITTANCE
456	0.8037
465	0.7988
474	0.7911
483	0.7828
492	0.7745
501	0.7646
510	0.7453
519	0.7155
528	0.6484
537	0.6903
546	0.7673
555	0.7912
564	0.7936
573	0.7954
582	0.7947
591	0.7796
600	0.612
609	0.7792
618	0.7677
627	0.7444
636	0.6878
645	0.4765
654	0.7339
663	0.7877
672	0.8004
681	0.8037
690	0.8047
699	0.8018
708	0.7922
717	0.7633
726	0.6532
735	0.3244
744	0.5624
753	0.3788
762	0.7209
771	0.7366
780	0.6854
789	0.6335
798	0.5894
807	0.3168
816	0.5982
825	0.6712
834	0.6897
843	0.7008
852	0.7053
861	0.696
870	0.6773
879	0.636
888	0.6339
897	0.5855
906	0.5202
915	0.5108
924	0.4857
933	0.4493
942	0.235
951	0.3569
960	0.4051
969	0.4924
978	0.5492
987	0.5984
996	0.5828
1005	0.2516
1014	0.5513
1023	0.5788
1032	0.6631
1041	0.6692
1050	0.6678
1059	0.645
1068	0.6596
1077	0.5453
1086	0.6768
1095	0.6732
1104	0.6691
1113	0.6726
1122	0.6561
1131	0.388
1140	0.4939
1149	0.4816
1158	0.4525
1167	0.3907
1176	0.2665
1185	0.4431
1194	0.4499
1203	0.4341
1212	0.3088
1221	0.2047
1230	0.3328
1239	0.4906
1248	0.5006
1257	0.4861
1266	0.4582
1275	0.4195
1284	0.3779
1293	0.3866
1302	0.2371
1311	0.3784
1320	0.5582
1329	0.6027
1338	0.6037
1347	0.5973
1356	0.5747
1365	0.6001
1374	0.5945
1383	0.5334
1392	0.5118
1401	0.4347
1410	0.3761
1419	0.2862
1428	0.35
1437	0.2424
1446	0.2514
1455	0.5751
1464	0.6904
1473	0.7333
1482	0.7277
1491	0.7513
1500	0.7386
1509	0.3248
1518	0.7675
1527	0.7886
1536	0.7819
1545	0.7477
1554	0.7036
1563	0.6921
1572	0.7261
1581	0.7005
1590	0.5923
1599	0.5998
1608	0.6015
1617	0.6843
1626	0.6794
1635	0.6605
1644	0.6196
1653	0.5654
1662	0.5091
1671	0.4095
1680	0.3022
1689	0.0676
1698	0.0306
1707	0.0507
1716	0.0767
1725	0.1764
1734	0.2385
1743	0.2764
1752	0.3529
1761	0.4355
1770	0.4796
1779	0.495
1788	0.5228
1797	0.5827
1806	0.684
1815	0.7183
1824	0.7466
1833	0.7718
1842	0.7835
1851	0.7859
1860	0.7939
1869	0.8003
1878	0.8055
1887	0.8087
1896	0.8117
1905	0.8145
1914	0.8172
1923	0.8182
1932	0.8187
1941	0.8192
1950	0.8202
1959	0.8261
1968	0.8284
1977	0.8284
1986	0.8278
1995	0.8273
2004	0.8263
2013	0.8277
2022	0.8299
2031	0.8335
2040	0.8352
2049	0.8354
2058	0.8351
2067	0.834
2076	0.8323
2085	0.8316
2094	0.8336
2103	0.8352
2112	0.8336
2121	0.8319
2130	0.8302
2139	0.8285
2148	0.8262
2157	0.8238
2166	0.8215
2175	0.82
2184	0.8186
2193	0.8171
2202	0.8156
2211	0.8142
2220	0.8132
2229	0.8122
2238	0.8113
2247	0.8098
2256	0.8084
2265	0.8069
2274	0.8047
2283	0.8021
2292	0.7994
2301	0.7965
2310	0.7936
2319	0.7907
2328	0.7875
2337	0.7843
2346	0.7811
2355	0.7778
2364	0.774
2373	0.769
2382	0.7641
2391	0.7578
2400	0.7506
2409	0.7434
2418	0.7352
2427	0.7259
2436	0.7186
2445	0.712
2454	0.7029
2463	0.6832
2472	0.6638
2481	0.6442
2490	0.6203
2499	0.6003
2508	0.5954
2517	0.6
2526	0.5995
2535	0.5894
2544	0.5735
2553	0.5638
2562	0.5611
2571	0.5548
2580	0.5452
2589	0.5369
2598	0.5316
2607	0.5351
2616	0.5214
2625	0.4998
2634	0.4853
2643	0.4819
2652	0.5057
2661	0.5222
2670	0.524
2679	0.5203
2688	0.518
2697	0.5187
2706	0.5243
2715	0.5184
2724	0.5113
2733	0.5133
2742	0.5142
2751	0.5117
2760	0.5033
2769	0.4927
2778	0.4836
2787	0.4789
2796	0.4722
2805	0.4575
2814	0.4422
2823	0.4277
2832	0.4084
2841	0.3882
2850	0.3661
2859	0.349
2868	0.3491
2877	0.348
2886	0.3348
2895	0.3148
2904	0.2918
2913	0.2623
2922	0.2269
2931	0.2522
2940	0.2924
2949	0.3059
2958	0.3062
2967	0.3024
2976	0.299
2985	0.3068
2994	0.3147
3003	0.3132
3012	0.3022
3021	0.2919
3030	0.2889
3039	0.2897
3048	0.2953
3057	0.3023
3066	0.3101
3075	0.3168
3084	0.3232
3093	0.3295
3102	0.3329
3111	0.3327
3120	0.3325
3129	0.3456
3138	0.3413
3147	0.333
3156	0.3842
3165	0.4076
3174	0.4247
3183	0.4366
3192	0.4478
3201	0.459
3210	0.4703
3219	0.4815
3228	0.4921
3237	0.5027
3246	0.5134
3255	0.5266
3264	0.5399
3273	0.5525
3282	0.5649
3291	0.5772
3300	0.5884
3309	0.5995
3318	0.611
3327	0.6238
3336	0.6379
3345	0.6532
3354	0.6692
3363	0.6833
3372	0.6968
3381	0.7096
3390	0.7214
3399	0.7315
3408	0.7405
3417	0.7496
3426	0.7588
3435	0.7679
3444	0.7771
3453	0.7862
3462	0.7955
3471	0.8047
3480	0.8131
3489	0.8212
3498	0.828
3507	0.8335
3516	0.8389
3525	0.843
3534	0.8465
3543	0.8499
3552	0.8528
3561	0.8556
3570	0.8578
3579	0.8597
3588	0.8615
3597	0.8633
3606	0.865
3615	0.8668
3624	0.8686
3633	0.8704
3642	0.8722
3651	0.8759
3660	0.8837
3669	0.8819
3678	0.8782
3687	0.8768
3696	0.8827
3705	0.886
3714	0.8886
3723	0.8901
3732	0.8902
3741	0.8864
3750	0.8823
3759	0.8809
3768	0.8815
3777	0.8828
3786	0.8854
