Infrared Spectrum: 1-Chloroadamantane
Formula: C 10 H 15 Cl
CAS: 935-56-8
State: gas
Origin: EPA-IR VAPOR PHASE LIBRARY
1/CM	ABSORBANCE
549.9	0.0015637
559.547	0.0013925
569.193	0.0015491
578.84	0.0014734
588.486	0.0012805
598.133	0.0012554
607.779	0.0011137
617.426	0.0011145
627.072	0.0012888
636.719	0.0014552
646.365	0.0015078
656.012	0.0019044
665.658	0.00348
675.305	0.00642
684.951	0.01021
694.598	0.01044
704.245	0.00581
713.891	0.0015207
723.538	0.0011406
733.184	0.000861
742.831	0.001025
752.477	0.0023
762.124	0.00496
771.77	0.00449
781.417	0.0013292
791.063	0.0021307
800.71	0.00673
810.356	0.01293
820.003	0.01578
829.649	0.0266
839.296	0.03193
848.943	0.01363
858.589	0.0018842
868.236	0.001008
877.882	0.000758
887.529	0.000783
897.175	0.00076
906.822	0.00076
916.468	0.000968
926.115	0.00123484
935.761	0.0019295
945.408	0.0057
955.054	0.00848
964.701	0.00569
974.347	0.00354
983.994	0.0035
993.64	0.00267
1003.29	0.0019364
1012.93	0.00356
1022.58	0.01451
1032.23	0.03656
1041.87	0.03423
1051.52	0.01127
1061.17	0.00272
1070.81	0.00120541
1080.46	0.0013273
1090.11	0.00401
1099.75	0.0094
1109.4	0.00649
1119.05	0.0017222
1128.69	0.0007
1138.34	0.000496
1147.99	0.000407
1157.63	0.000502
1167.28	0.000661
1176.92	0.000937
1186.57	0.000919
1196.22	0.000308
1205.86	0.000252
1215.51	6e-05
1225.16	0.000504
1234.8	0.000798
1244.45	0.0012559
1254.1	0.001372
1263.74	0.0014935
1273.39	0.00295
1283.04	0.00783
1292.68	0.01487
1302.33	0.01717
1311.98	0.00891
1321.62	0.00218
1331.27	0.00238
1340.92	0.00771
1350.56	0.01084
1360.21	0.00497
1369.86	0.0011142
1379.5	0.000791
1389.15	0.000734
1398.79	0.000809
1408.44	0.0011133
1418.09	0.0021286
1427.73	0.0043
1437.38	0.00851
1447.03	0.01951
1456.67	0.02886
1466.32	0.02086
1475.97	0.00687
1485.61	0.0020297
1495.26	0.00118943
1504.91	0.001052
1514.55	0.000915
1524.2	0.000665
1533.85	0.000469
1543.49	0.000354
1553.14	0.000307
1562.79	0.000311
1572.43	0.000269
1582.08	0.000282
1591.73	0.000201
1601.37	0.000185
1611.02	0.000212
1620.67	0.000284
1630.31	0.000332
1639.96	0.000351
1649.6	0.000339
1659.25	0.000344
1668.9	0.000308
1678.54	0.000319
1688.19	0.000335
1697.84	0.000348
1707.48	0.000298
1717.13	0.000312
1726.78	0.000356
1736.42	0.000335
1746.07	0.000354
1755.72	0.000415
1765.36	0.000432
1775.01	0.000337
1784.66	0.00032
1794.3	0.000401
1803.95	0.000409
1813.6	0.000405
1823.24	0.000431
1832.89	0.000348
1842.54	0.000372
1852.18	0.00032
1861.83	0.000356
1871.47	0.000388
1881.12	0.000368
1890.77	0.000355
1900.41	0.000454
1910.06	0.000546
1919.71	0.000535
1929.35	0.000588
1939	0.000567
1948.65	0.00044
1958.29	0.000457
1967.94	0.000454
1977.59	0.000413
1987.23	0.00041
1996.88	0.000503
2006.53	0.000444
2016.17	0.000386
2025.82	0.000457
2035.47	0.000467
2045.11	0.000521
2054.76	0.00053
2064.41	0.000532
2074.05	0.000563
2083.7	0.000532
2093.35	0.000511
2102.99	0.000623
2112.64	0.000837
2122.28	0.000912
2131.93	0.000872
2141.58	0.000807
2151.22	0.000728
2160.87	0.000589
2170.52	0.000515
2180.16	0.000572
2189.81	0.000564
2199.46	0.000558
2209.1	0.000611
2218.75	0.000653
2228.4	0.000615
2238.04	0.000631
2247.69	0.000678
2257.34	0.000693
2266.98	0.000731
2276.63	0.000765
2286.28	0.000802
2295.92	0.000832
2305.57	0.000755
2315.22	0.000723
2324.86	0.000833
2334.51	0.000788
2344.16	0.000699
2353.8	0.000692
2363.45	0.000772
2373.09	0.000786
2382.74	0.000727
2392.39	0.000696
2402.03	0.00064
2411.68	0.000693
2421.33	0.000951
2430.97	0.00098
2440.62	0.00095
2450.27	0.000905
2459.91	0.000837
2469.56	0.000848
2479.21	0.000731
2488.85	0.000705
2498.5	0.000705
2508.15	0.000824
2517.79	0.001031
2527.44	0.00121803
2537.09	0.0011216
2546.73	0.00118694
2556.38	0.0013473
2566.03	0.0014977
2575.67	0.0014348
2585.32	0.00120114
2594.96	0.0012755
2604.61	0.0016402
2614.26	0.00221
2623.9	0.00257
2633.55	0.0028
2643.2	0.00312
2652.84	0.00394
2662.49	0.00432
2672.14	0.00407
2681.78	0.00342
2691.43	0.0023
2701.08	0.0015169
2710.72	0.0015362
2720.37	0.0015106
2730.02	0.0015326
2739.66	0.0016876
2749.31	0.0017605
2758.96	0.0017587
2768.6	0.0017184
2778.25	0.0019156
2787.9	0.00246
2797.54	0.00289
2807.19	0.00342
2816.84	0.00409
2826.48	0.00476
2836.13	0.00661
2845.77	0.01748
2855.42	0.05538
2865.07	0.0772
2874.71	0.0508
2884.36	0.02533
2894.01	0.02559
2903.65	0.08666
2913.3	0.24053
2922.95	0.33786
2932.59	0.26714
2942.24	0.18696
2951.89	0.11052
2961.53	0.03124
2971.18	0.00823
2980.83	0.00458
2990.47	0.00321
3000.12	0.00253
3009.77	0.0019846
3019.41	0.0018812
3029.06	0.0016739
3038.71	0.0016103
3048.35	0.0016644
3058	0.0016354
3067.64	0.0016751
3077.29	0.0015785
3086.94	0.0015773
3096.58	0.0014066
3106.23	0.0012695
3115.88	0.0013996
3125.52	0.00171
3135.17	0.0017524
3144.82	0.0016718
3154.46	0.0014113
3164.11	0.0015001
3173.76	0.0014413
3183.4	0.0014354
3193.05	0.0013945
3202.7	0.0015206
3212.34	0.0014518
3221.99	0.001446
3231.64	0.0014814
3241.28	0.0016286
3250.93	0.0017557
3260.58	0.0018225
3270.22	0.0021489
3279.87	0.00222
3289.52	0.001861
3299.16	0.0016086
3308.81	0.0016237
3318.45	0.0015727
3328.1	0.0016414
3337.75	0.0015029
3347.39	0.0014701
3357.04	0.0013977
3366.69	0.0015644
3376.33	0.0018047
3385.98	0.0020169
3395.63	0.00238
3405.27	0.00238
3414.92	0.0018196
3424.57	0.0014412
3434.21	0.001333
3443.86	0.0013584
3453.51	0.0013584
3463.15	0.0013517
3472.8	0.0013215
3482.45	0.0012722
3492.09	0.0012844
3501.74	0.0012854
3511.39	0.0013674
3521.03	0.00124293
3530.68	0.00125036
3540.33	0.00122553
3549.97	0.0016025
3559.62	0.0016491
3569.26	0.0014016
3578.91	0.0013909
3588.56	0.0013548
3598.2	0.00122566
3607.85	0.0013322
3617.5	0.0012932
3627.14	0.00120067
3636.79	0.0010991
3646.44	0.0011264
3656.08	0.0010971
3665.73	0.000969
3675.38	0.001008
3685.02	0.00120566
3694.67	0.0012812
3704.32	0.0012933
3713.96	0.00125517
3723.61	0.001317
3733.26	0.0015053
3742.9	0.0015797
3752.55	0.0014412
3762.2	0.0012669
3771.84	0.00124824
3781.49	0.0014196
3791.13	0.0013895
3800.78	0.0014037
3810.43	0.0015117
3820.07	0.0015822
3829.72	0.0015161
3839.37	0.0016001
3849.01	0.0015899
3858.66	0.0013683
3868.31	0.0015412
3877.95	0.001422
3887.6	0.0015894
3897.25	0.0016933
3906.89	0.0016514
3916.54	0.0015667
3926.19	0.001568
3935.83	0.001729
3945.48	0.0020881
3955.13	0.00226
3964.77	0.0018299
3974.42	0.0017248
3984.07	0.0014882
3993.71	0.0013577
