Infrared Spectrum: 4-METHOXYQUINOLIZINIUM PERCHLORATE
Formula: C10 H10 Cl N O5
CAS: 93505-96-5
State: SOLID (KBr PRESSING)
Melting point: 160 C
Class: COBLENTZ
Instrument: Not specified, most likely a prism, grating, or hybrid spectrometer.
Sampling: TRANSMISSION
Resolution: 4
Origin: EASTMAN KODAK COMPANY, RESEARCH LABORATORIES, ROCHESTER, N.Y.
MICROMETERS	TRANSMITTANCE
2.067	0.592
2.10702	0.595
2.14704	0.594
2.18706	0.594
2.22708	0.597
2.2671	0.603
2.30711	0.6
2.34713	0.599
2.38715	0.595
2.42717	0.599
2.46719	0.602
2.50721	0.603
2.54723	0.605
2.58725	0.605
2.62727	0.605
2.66729	0.607
2.70731	0.61
2.74733	0.612
2.78734	0.602
2.82736	0.549
2.86738	0.528
2.9074	0.509
2.94742	0.502
2.98744	0.527
3.02746	0.564
3.06748	0.585
3.1075	0.595
3.14752	0.603
3.18754	0.608
3.22756	0.535
3.26757	0.486
3.30759	0.482
3.34761	0.563
3.38763	0.6
3.42765	0.567
3.46767	0.595
3.50769	0.615
3.54771	0.62
3.58773	0.653
3.62775	0.657
3.66777	0.666
3.70778	0.671
3.7478	0.675
3.78782	0.677
3.82784	0.679
3.86786	0.679
3.90788	0.682
3.9479	0.687
3.98792	0.695
4.02794	0.7
4.06796	0.707
4.10798	0.707
4.148	0.708
4.18801	0.711
4.22803	0.708
4.26805	0.708
4.30807	0.71
4.34809	0.713
4.38811	0.726
4.42813	0.729
4.46815	0.731
4.50817	0.733
4.54819	0.733
4.58821	0.731
4.62822	0.741
4.66824	0.749
4.70826	0.751
4.74828	0.759
4.7883	0.756
4.82832	0.751
4.86834	0.756
4.90836	0.749
4.94838	0.744
4.9884	0.687
5.02842	0.723
5.06844	0.756
5.10845	0.764
5.14847	0.769
5.18849	0.77
5.22851	0.77
5.26853	0.774
5.30855	0.775
5.34857	0.783
5.38859	0.783
5.42861	0.785
5.46863	0.788
5.50865	0.785
5.54867	0.788
5.58868	0.788
5.6287	0.797
5.66872	0.795
5.70874	0.797
5.74876	0.81
5.78878	0.811
5.8288	0.801
5.86882	0.797
5.90884	0.79
5.94886	0.78
5.98888	0.779
6.02889	0.726
6.06891	0.669
6.10893	0.458
6.14895	0.338
6.18897	0.081
6.22899	0.463
6.26901	0.63
6.30903	0.538
6.34905	0.613
6.38907	0.703
6.42909	0.762
6.46911	0.765
6.50912	0.775
6.54914	0.79
6.58916	0.793
6.62918	0.788
6.6692	0.77
6.70922	0.733
6.74924	0.603
6.78926	0.302
6.82928	0.103
6.8693	0.292
6.90932	0.417
6.94933	0.356
6.98935	0.546
7.02937	0.572
7.06939	0.687
7.10941	0.728
7.14943	0.649
7.18945	0.317
7.22947	0.227
7.26949	0.517
7.30951	0.576
7.34953	0.69
7.38955	0.612
7.42956	0.22
7.46958	0.528
7.5096	0.617
7.54962	0.551
7.58964	0.468
7.62966	0.312
7.66968	0.184
7.7097	0.399
7.74972	0.556
7.78974	0.607
7.82976	0.656
7.86978	0.707
7.90979	0.708
7.94981	0.522
7.98983	0.515
8.02985	0.697
8.06987	0.697
8.10989	0.729
8.14991	0.739
8.18993	0.759
8.22995	0.756
8.26997	0.672
8.30999	0.549
8.35	0.628
8.39002	0.664
8.43004	0.666
8.47006	0.698
8.51008	0.697
8.5501	0.617
8.59012	0.564
8.63014	0.566
8.67016	0.587
8.71018	0.581
8.7502	0.505
8.79022	0.422
8.83023	0.397
8.87025	0.427
8.91027	0.35
8.95029	0.211
8.99031	0.15
9.03033	0.085
9.07035	0.068
9.11037	0.05
9.15039	0.029
9.19041	0.022
9.23043	0.021
9.27044	0.021
9.31046	0.022
9.35048	0.032
9.3905	0.083
9.43052	0.129
9.47054	0.188
9.51056	0.248
9.55058	0.297
9.5906	0.338
9.63062	0.363
9.67064	0.265
9.71066	0.284
9.75067	0.364
9.79069	0.415
9.83071	0.438
9.87073	0.441
9.91075	0.445
9.95077	0.492
9.99079	0.522
10.0308	0.564
10.0708	0.603
10.1108	0.6
10.1509	0.451
10.1909	0.276
10.2309	0.178
10.2709	0.247
10.3109	0.35
10.351	0.402
10.391	0.448
10.431	0.446
10.471	0.466
10.511	0.51
10.5511	0.536
10.5911	0.548
10.6311	0.571
10.6711	0.585
10.7111	0.595
10.7512	0.599
10.7912	0.605
10.8312	0.625
10.8712	0.628
10.9112	0.643
10.9512	0.649
10.9913	0.653
11.0313	0.656
11.0713	0.659
11.1113	0.661
11.1513	0.639
11.1914	0.656
11.2314	0.672
11.2714	0.684
11.3114	0.687
11.3514	0.693
11.3915	0.695
11.4315	0.695
11.4715	0.648
11.5115	0.648
11.5515	0.68
11.5916	0.689
11.6316	0.692
11.6716	0.689
11.7116	0.7
11.7516	0.707
11.7917	0.71
11.8317	0.71
11.8717	0.71
11.9117	0.71
11.9517	0.708
11.9917	0.708
12.0318	0.708
12.0718	0.708
12.1118	0.698
12.1518	0.68
12.1918	0.656
12.2319	0.599
12.2719	0.495
12.3119	0.34
12.3519	0.207
12.3919	0.163
12.432	0.209
12.472	0.36
12.512	0.448
12.552	0.507
12.592	0.566
12.6321	0.6
12.6721	0.615
12.7121	0.592
12.7521	0.502
12.7921	0.328
12.8321	0.327
12.8722	0.418
12.9122	0.507
12.9522	0.545
12.9922	0.576
13.0322	0.612
13.0723	0.617
13.1123	0.626
13.1523	0.63
13.1923	0.63
13.2323	0.597
13.2724	0.538
13.3124	0.594
13.3524	0.63
13.3924	0.648
13.4324	0.679
13.4725	0.69
13.5125	0.697
13.5525	0.7
13.5925	0.638
13.6325	0.522
13.6726	0.518
13.7126	0.574
13.7526	0.618
13.7926	0.639
13.8326	0.671
13.8726	0.68
13.9127	0.697
13.9527	0.703
13.9927	0.708
14.0327	0.71
14.0727	0.71
14.1128	0.705
14.1528	0.695
14.1928	0.672
14.2328	0.648
14.2728	0.62
14.3129	0.595
14.3529	0.582
14.3929	0.577
14.4329	0.597
14.4729	0.646
14.513	0.69
14.553	0.707
14.593	0.711
14.633	0.716
14.673	0.718
14.713	0.72
14.7531	0.72
14.7931	0.72
14.8331	0.72
14.8731	0.72
14.9131	0.718
14.9532	0.708
14.9932	0.687
15.0332	0.697
15.0732	0.708
15.1132	0.71
15.1533	0.698
15.1933	0.685
15.2333	0.662
15.2733	0.646
15.3133	0.643
15.3534	0.646
15.3934	0.648
15.4334	0.654
15.4734	0.662
15.5134	0.666
15.5534	0.664
15.5935	0.666
15.6335	0.653
15.6735	0.643
15.7135	0.631
15.7535	0.621
15.7936	0.612
15.8336	0.6
15.8736	0.564
15.9136	0.52
15.9536	0.468
15.9937	0.422
