Infrared Spectrum: 1-Cyclohexyl-1-pentanol
Formula: C 11 H 22 O
CAS: 93548-33-5
State: gas
Instrument: HP-GC/MS/IRD
Origin: NIST Mass Spectrometry Data Center
1/CM	ABSORBANCE
550	0.0005037
562	1.46e-05
574	3.65e-05
586	0.0001971
598	0.0001387
610	0.0001606
622	0.0001314
634	0.0001533
646	0.0001606
658	0.0001314
670	0.000219
682	0.000146
694	8.03e-05
706	7.3e-05
718	0.0001387
730	0.000365
742	0.0004234
754	0.0003577
766	0.0002993
778	0.0004453
790	0.0004234
802	0.0003577
814	0.0003723
826	0.000365
838	0.0006059
850	0.000657
862	0.0009125
874	0.0011534
886	0.0018469
898	0.001971
910	0.001168
922	0.0008541
934	0.0008541
946	0.0010804
958	0.0015768
970	0.0022557
982	0.0033507
994	0.0039712
1006	0.0043873
1018	0.0045114
1030	0.0041902
1042	0.0036719
1054	0.0035113
1066	0.0034748
1078	0.0030733
1090	0.0028032
1102	0.0028616
1114	0.0030952
1126	0.0027886
1138	0.0021535
1150	0.0018323
1162	0.0015622
1174	0.0017812
1186	0.0020586
1198	0.0022776
1210	0.0023433
1222	0.0024309
1234	0.0026426
1246	0.0028908
1258	0.003139
1270	0.0030587
1282	0.0023725
1294	0.0022995
1306	0.0022046
1318	0.0018907
1330	0.0019491
1342	0.0023871
1354	0.002628
1366	0.0026791
1378	0.0033726
1390	0.0032266
1402	0.0022119
1414	0.0016279
1426	0.0014965
1438	0.002701
1450	0.0060371
1462	0.005402
1474	0.002701
1486	0.0011826
1498	0.0006935
1510	0.0004745
1522	0.0003577
1534	0.0002628
1546	0.0001971
1558	0.0001533
1570	0.0001387
1582	0.0001387
1594	9.49e-05
1606	0.0001241
1618	7.3e-05
1630	5.84e-05
1642	6.57e-05
1654	3.65e-05
1666	4.38e-05
1678	3.65e-05
1690	3.65e-05
1702	2.19e-05
1714	1.46e-05
1726	3.65e-05
1738	2.19e-05
1750	4.38e-05
1762	2.92e-05
1774	2.19e-05
1786	5.11e-05
1798	3.65e-05
1810	7.3e-06
1822	3.65e-05
1834	2.19e-05
1846	3.65e-05
1858	5.11e-05
1870	3.65e-05
1882	2.92e-05
1894	3.65e-05
1906	1.46e-05
1918	2.92e-05
1930	2.92e-05
1942	2.19e-05
1954	2.92e-05
1966	7.3e-06
1978	2.19e-05
1990	2.19e-05
2002	2.92e-05
2014	0
2026	2.92e-05
2038	4.38e-05
2050	2.92e-05
2062	2.19e-05
2074	2.19e-05
2086	2.19e-05
2098	1.46e-05
2110	0
2122	2.92e-05
2134	2.19e-05
2146	5.11e-05
2158	2.92e-05
2170	6.57e-05
2182	6.57e-05
2194	6.57e-05
2206	5.11e-05
2218	7.3e-05
2230	6.57e-05
2242	6.57e-05
2254	3.65e-05
2266	2.92e-05
2278	4.38e-05
2290	2.92e-05
2302	2.92e-05
2314	1.46e-05
2326	2.92e-05
2338	6.57e-05
2350	8.03e-05
2362	8.03e-05
2374	6.57e-05
2386	0.0001022
2398	0.0001168
2410	0.0001095
2422	8.03e-05
2434	0.0001095
2446	8.03e-05
2458	3.65e-05
2470	7.3e-05
2482	0.0001022
2494	0.0001314
2506	0.0001168
2518	0.0001387
2530	0.0001679
2542	0.0001606
2554	0.0001533
2566	0.0002482
2578	0.0002847
2590	0.0003796
2602	0.0004234
2614	0.0004672
2626	0.0005183
2638	0.000584
2650	0.0007519
2662	0.0009709
2674	0.0010001
2686	0.0008541
2698	0.0007519
2710	0.0007592
2722	0.0007373
2734	0.0007738
2746	0.000876
2758	0.0008979
2770	0.001022
2782	0.0013213
2794	0.0016863
2806	0.0020878
2818	0.0027156
2830	0.0039493
2842	0.0075628
2854	0.0194691
2866	0.0290248
2878	0.020659
2890	0.0157096
2902	0.0180821
2914	0.029784
2926	0.0559472
2938	0.0726569
2950	0.0397266
2962	0.0226373
2974	0.0157753
2986	0.0062926
2998	0.0033069
3010	0.0022046
3022	0.0016279
3034	0.0012337
3046	0.0009271
3058	0.0007227
3070	0.0006278
3082	0.0005256
3094	0.0004599
3106	0.0003942
3118	0.000365
3130	0.0003358
3142	0.0003431
3154	0.0002993
3166	0.0002555
3178	0.0002044
3190	0.0001533
3202	0.0001825
3214	8.03e-05
3226	8.03e-05
3238	6.57e-05
3250	5.84e-05
3262	5.11e-05
3274	3.65e-05
3286	3.65e-05
3298	4.38e-05
3310	5.84e-05
3322	2.92e-05
3334	6.57e-05
3346	6.57e-05
3358	7.3e-05
3370	8.76e-05
3382	0.0001022
3394	0.0001022
3406	0.0001387
3418	0.000146
3430	0.0002263
3442	0.0001241
3454	0.0001168
3466	0.0001533
3478	9.49e-05
3490	7.3e-05
3502	0.0001022
3514	5.84e-05
3526	6.57e-05
3538	8.03e-05
3550	0.0001022
3562	5.11e-05
3574	6.57e-05
3586	6.57e-05
3598	0.0001095
3610	0.0001898
3622	0.0003723
3634	0.0007446
3646	0.0014454
3658	0.0019418
3670	0.0011607
3682	0.0004161
3694	0.000219
3706	0.0001898
3718	0.0001752
3730	0.0001241
3742	0.000146
3754	0.0001314
3766	0.0001168
3778	0.0001679
3790	0.0001971
3802	0.0001679
3814	0.0001752
3826	0.0002117
3838	0.0001898
