Infrared Spectrum: 1,1-Cyclohexane diacetic acid
Formula: C 10 H 16 O 4
CAS: 9355-11-7
State: gas
Instrument: HP-GC/MS/IRD
Origin: NIST Mass Spectrometry Data Center
1/CM	ABSORBANCE
550	0.0113316
562	0.0089034
574	0.0113658
586	0.024795
598	0.0270066
610	0.0198588
622	0.020064
634	0.018582
646	0.0158118
658	0.0135432
670	0.0108414
682	0.007125
694	0.0048678
706	0.0038304
718	0.0030324
730	0.002223
742	0.001596
754	0.0010602
766	0.0007524
778	0.000741
790	0.0003306
802	0
814	0.000114
826	0.0001938
838	0.0005814
850	0.0018468
862	0.0015162
874	0.0015048
886	0.0020634
898	0.0025878
910	0.0026106
922	0.0025308
934	0.0033516
946	0.0027474
958	0.0022572
970	0.0031122
982	0.0025992
994	0.0024396
1006	0.0029412
1018	0.0034086
1030	0.0052098
1042	0.0086868
1054	0.015447
1066	0.0262884
1078	0.0357732
1090	0.045201
1102	0.0583908
1114	0.0803244
1126	0.067089
1138	0.0490542
1150	0.0422712
1162	0.0331056
1174	0.0253308
1186	0.0193572
1198	0.0149112
1210	0.0109554
1222	0.0106932
1234	0.0116964
1246	0.0110238
1258	0.009747
1270	0.008664
1282	0.0087894
1294	0.0084018
1306	0.0082536
1318	0.0091884
1330	0.0109554
1342	0.0140904
1354	0.0181374
1366	0.0219678
1378	0.0229482
1390	0.0152874
1402	0.00798
1414	0.0066006
1426	0.0071022
1438	0.008094
1450	0.0106362
1462	0.012369
1474	0.0052782
1486	0.0014022
1498	0.000627
1510	0.000456
1522	0.0002508
1534	0.000114
1546	7.98e-05
1558	0.0001368
1570	6.84e-05
1582	0.000114
1594	4.56e-05
1606	4.56e-05
1618	0.0001368
1630	0.0002052
1642	0.0003648
1654	0.000684
1666	0.0009918
1678	0.00171
1690	0.0027816
1702	0.0048564
1714	0.0084474
1726	0.0159372
1738	0.0303468
1750	0.052725
1762	0.0921918
1774	0.114
1786	0.0769614
1798	0.0369474
1810	0.016758
1822	0.0110694
1834	0.007353
1846	0.003192
1858	0.001824
1870	0.0012312
1882	0.0008322
1894	0.0006498
1906	0.0005016
1918	0.0004218
1930	0.0003762
1942	0.0003876
1954	0.0003534
1966	0.0003534
1978	0.0002964
1990	0.000285
2002	0.0002508
2014	0.0002508
2026	0.0002052
2038	0.0001482
2050	7.98e-05
2062	3.42e-05
2074	1.14e-05
2086	0
2098	2.28e-05
2110	3.42e-05
2122	3.42e-05
2134	7.98e-05
2146	7.98e-05
2158	0.000114
2170	0.0001938
2182	0.0002622
2194	0.000342
2206	0.0003648
2218	0.0003762
2230	0.0003876
2242	0.0003078
2254	0.000228
2266	0.0002622
2278	0.0002394
2290	0.000228
2302	0.000171
2314	0.000171
2326	0.0002052
2338	0.000171
2350	0.0001482
2362	0.0001824
2374	0.0001824
2386	0.0001596
2398	0.0001482
2410	0.0001482
2422	0.0001482
2434	0.0001368
2446	0.0001026
2458	0.000114
2470	0.0001026
2482	0.000114
2494	0.0001368
2506	0.000114
2518	6.84e-05
2530	4.56e-05
2542	2.28e-05
2554	0
2566	2.28e-05
2578	3.42e-05
2590	0.0001026
2602	0.0001596
2614	0.0002508
2626	0.0002736
2638	0.0003648
2650	0.00057
2662	0.0007296
2674	0.0007866
2686	0.0005928
2698	0.0003876
2710	0.0003306
2722	0.000342
2734	0.0003534
2746	0.0003306
2758	0.0003306
2770	0.0005016
2782	0.000684
2794	0.0009918
2806	0.0012768
2818	0.0016188
2830	0.0022572
2842	0.0038076
2854	0.0114684
2866	0.0235752
2878	0.02052
2890	0.0123918
2902	0.0136116
2914	0.0208278
2926	0.0417012
2938	0.0786144
2950	0.0537168
2962	0.0203832
2974	0.008037
2986	0.0044802
2998	0.0028614
3010	0.0018126
3022	0.0011856
3034	0.000798
3046	0.0006156
3058	0.000513
3070	0.0004446
3082	0.0003762
3094	0.0002052
3106	0.0001026
3118	6.84e-05
3130	7.98e-05
3142	7.98e-05
3154	6.84e-05
3166	2.28e-05
3178	2.28e-05
3190	1.14e-05
3202	3.42e-05
3214	6.84e-05
3226	2.28e-05
3238	6.84e-05
3250	7.98e-05
3262	5.7e-05
3274	9.12e-05
3286	0.000114
3298	0.0001368
3310	0.0001482
3322	0.0001596
3334	0.0001482
3346	0.000228
3358	0.0002394
3370	0.000399
3382	0.0005472
3394	0.0008094
3406	0.0008778
3418	0.0008322
3430	0.0008322
3442	0.0007752
3454	0.0007296
3466	0.0007182
3478	0.0008208
3490	0.000912
3502	0.0012654
3514	0.0016302
3526	0.0020406
3538	0.0028386
3550	0.0062472
3562	0.0348498
3574	0.0488376
3586	0.0096216
3598	0.0024852
3610	0.0012426
3622	0.0008094
3634	0.0006726
3646	0.000513
3658	0.000171
3670	0.0001824
3682	4.56e-05
3694	6.84e-05
3706	7.98e-05
3718	4.56e-05
3730	3.42e-05
3742	4.56e-05
3754	2.28e-05
3766	0
3778	0
3790	0
3802	2.28e-05
3814	0
3826	0
3838	0.0001254
