Infrared Spectrum: 1,3-DIPHENYL PYRAZOLO[3,4-b] PYRAZINE
Formula: C17 H12 N4
CAS: 93585-23-0
State: SOLID (MINERAL OIL MULL)
Melting point: 124.5-125 C
Class: COBLENTZ
Instrument: Not specified, most likely a prism, grating, or hybrid spectrometer.
Sampling: TRANSMISSION
Resolution: 4
Origin: WYANDOTTE CHEMICALS CORP., WYANDOTTE, MICHIGAN, USA
MICROMETERS	TRANSMITTANCE
2.027	0.259
2.06788	0.271
2.10875	0.283
2.14963	0.288
2.19051	0.29
2.23138	0.3
2.27226	0.31
2.31313	0.316
2.35401	0.314
2.39489	0.329
2.43576	0.338
2.47664	0.35
2.51752	0.347
2.55839	0.372
2.59927	0.362
2.64015	0.381
2.68102	0.388
2.7219	0.395
2.76278	0.402
2.80365	0.405
2.84453	0.407
2.8854	0.412
2.92628	0.415
2.96716	0.422
3.00803	0.419
3.04891	0.426
3.08979	0.432
3.13066	0.427
3.17154	0.436
3.21242	0.426
3.25329	0.335
3.29417	0.341
3.33505	0.161
3.37592	0.029
3.4168	0.077
3.45767	0.139
3.49855	0.161
3.53943	0.462
3.5803	0.539
3.62118	0.539
3.66206	0.546
3.70293	0.551
3.74381	0.556
3.78469	0.57
3.82556	0.585
3.86644	0.591
3.90732	0.597
3.94819	0.606
3.98907	0.618
4.02994	0.618
4.07082	0.627
4.1117	0.632
4.15257	0.637
4.19345	0.64
4.23433	0.635
4.2752	0.623
4.31608	0.64
4.35696	0.67
4.39783	0.685
4.43871	0.68
4.47959	0.685
4.52046	0.687
4.56134	0.694
4.60221	0.697
4.64309	0.713
4.68397	0.725
4.72484	0.725
4.76572	0.745
4.8066	0.742
4.84747	0.742
4.88835	0.75
4.92923	0.752
4.9701	0.759
5.01098	0.773
5.05186	0.771
5.09273	0.769
5.13361	0.752
5.17448	0.761
5.21536	0.78
5.25624	0.769
5.29711	0.749
5.33799	0.769
5.37887	0.785
5.41974	0.8
5.46062	0.805
5.5015	0.802
5.54237	0.793
5.58325	0.802
5.62413	0.802
5.665	0.816
5.70588	0.816
5.74675	0.819
5.78763	0.829
5.82851	0.831
5.86938	0.824
5.91026	0.793
5.95114	0.8
5.99201	0.81
6.03289	0.819
6.07377	0.812
6.11464	0.809
6.15552	0.795
6.1964	0.402
6.23727	0.412
6.27815	0.709
6.31902	0.766
6.3599	0.761
6.40078	0.661
6.44165	0.659
6.48253	0.731
6.52341	0.69
6.56428	0.323
6.60516	0.115
6.64604	0.247
6.68691	0.273
6.72779	0.439
6.76867	0.242
6.80954	0.242
6.85042	0.292
6.89129	0.451
6.93217	0.618
6.97305	0.525
7.01392	0.192
7.0548	0.226
7.09568	0.498
7.13655	0.615
7.17743	0.57
7.21831	0.489
7.25918	0.302
7.30006	0.625
7.34094	0.661
7.38181	0.402
7.42269	0.675
7.46356	0.74
7.50444	0.735
7.54532	0.706
7.58619	0.56
7.62707	0.725
7.66795	0.745
7.70882	0.621
7.7497	0.682
7.79058	0.759
7.83145	0.683
7.87233	0.654
7.91321	0.525
7.95408	0.474
7.99496	0.711
8.03583	0.742
8.07671	0.804
8.11759	0.819
8.15846	0.85
8.19934	0.845
8.24022	0.754
8.28109	0.427
8.32197	0.128
8.36285	0.489
8.40372	0.704
8.4446	0.714
8.48548	0.68
8.52635	0.761
8.56723	0.757
8.6081	0.771
8.64898	0.833
8.68986	0.841
8.73073	0.841
8.77161	0.754
8.81249	0.29
8.85336	0.34
8.89424	0.695
8.93512	0.764
8.97599	0.773
9.01687	0.762
9.05775	0.773
9.09862	0.809
9.1395	0.831
9.18037	0.835
9.22125	0.786
9.26213	0.637
9.303	0.613
9.34388	0.74
9.38476	0.812
9.42563	0.852
9.46651	0.862
9.50739	0.742
9.54826	0.489
9.58914	0.627
9.63002	0.771
9.67089	0.793
9.71177	0.781
9.75264	0.833
9.79352	0.865
9.8344	0.89
9.87527	0.891
9.91615	0.831
9.95703	0.501
9.9979	0.634
10.0388	0.532
10.0797	0.68
10.1205	0.716
10.1614	0.714
10.2023	0.78
10.2432	0.809
10.284	0.836
10.3249	0.823
10.3658	0.84
10.4067	0.606
10.4475	0.173
10.4884	0.426
10.5293	0.685
10.5702	0.738
10.611	0.807
10.6519	0.829
10.6928	0.826
10.7337	0.81
10.7746	0.821
10.8154	0.821
10.8563	0.829
10.8972	0.802
10.9381	0.814
10.9789	0.783
11.0198	0.836
11.0607	0.847
11.1016	0.86
11.1424	0.9
11.1833	0.902
11.2242	0.908
11.2651	0.908
11.3059	0.898
11.3468	0.9
11.3877	0.898
11.4286	0.905
11.4695	0.912
11.5103	0.91
11.5512	0.914
11.5921	0.893
11.633	0.835
11.6738	0.627
11.7147	0.584
11.7556	0.766
11.7965	0.725
11.8373	0.728
11.8782	0.766
11.9191	0.792
11.96	0.819
12.0008	0.896
12.0417	0.907
12.0826	0.919
12.1235	0.943
12.1644	0.955
12.2052	0.95
12.2461	0.941
12.287	0.943
12.3279	0.95
12.3687	0.936
12.4096	0.934
12.4505	0.929
12.4914	0.934
12.5322	0.943
12.5731	0.939
12.614	0.941
12.6549	0.938
12.6957	0.931
12.7366	0.917
12.7775	0.914
12.8184	0.867
12.8593	0.766
12.9001	0.661
12.941	0.637
12.9819	0.487
13.0228	0.183
13.0636	0.139
13.1045	0.147
13.1454	0.209
13.1863	0.197
13.2271	0.171
13.268	0.249
13.3089	0.408
13.3498	0.69
13.3906	0.812
13.4315	0.888
13.4724	0.907
13.5133	0.929
13.5542	0.929
13.595	0.938
13.6359	0.932
13.6768	0.941
13.7177	0.939
13.7585	0.943
13.7994	0.934
13.8403	0.932
13.8812	0.927
13.922	0.939
13.9629	0.938
14.0038	0.941
14.0447	0.943
14.0855	0.943
14.1264	0.929
14.1673	0.917
14.2082	0.876
14.2491	0.812
14.2899	0.706
14.3308	0.594
14.3717	0.501
14.4126	0.42
14.4534	0.335
14.4943	0.268
14.5352	0.285
14.5761	0.384
14.6169	0.565
14.6578	0.697
14.6987	0.79
14.7396	0.814
14.7804	0.798
14.8213	0.685
14.8622	0.57
14.9031	0.544
14.944	0.567
14.9848	0.577
15.0257	0.546
15.0666	0.508
15.1075	0.52
15.1483	0.549
15.1892	0.596
15.2301	0.634
15.271	0.692
15.3118	0.738
15.3527	0.761
15.3936	0.769
15.4345	0.764
15.4753	0.75
15.5162	0.749
15.5571	0.738
15.598	0.714
15.6389	0.711
15.6797	0.697
15.7206	0.678
15.7615	0.658
15.8024	0.649
15.8432	0.632
15.8841	0.608
15.925	0.599
15.9659	0.584
