Infrared Spectrum: o-Allyloxytoluene
Formula: C 10 H 12 O
CAS: 936-72-1
State: gas
Origin: EPA-IR VAPOR PHASE LIBRARY
1/CM	ABSORBANCE
549.8	0.001528
559.445	0.001388
569.09	0.001368
578.734	0.001478
588.379	0.001468
598.024	0.001418
607.669	0.001508
617.313	0.001488
626.958	0.001518
636.603	0.001468
646.248	0.001468
655.893	0.001428
665.537	0.0010734
675.182	0.001308
684.827	0.001458
694.472	0.001978
704.116	0.004498
713.761	0.007738
723.406	0.007738
733.051	0.011398
742.695	0.019958
752.34	0.021338
761.985	0.012948
771.63	0.006008
781.275	0.002658
790.919	0.001818
800.564	0.001368
810.209	0.001898
819.854	0.002138
829.498	0.002738
839.143	0.003568
848.788	0.002858
858.433	0.002138
868.078	0.001838
877.722	0.002038
887.367	0.002708
897.012	0.003568
906.657	0.005368
916.301	0.010268
925.946	0.014488
935.591	0.011198
945.236	0.007148
954.88	0.006008
964.525	0.006618
974.17	0.008768
983.815	0.012748
993.46	0.018748
1003.1	0.022558
1012.75	0.023278
1022.39	0.022278
1032.04	0.019138
1041.68	0.017698
1051.33	0.013558
1060.97	0.006708
1070.62	0.004078
1080.26	0.003978
1089.91	0.004238
1099.55	0.005428
1109.2	0.012698
1118.84	0.022828
1128.49	0.017868
1138.13	0.008718
1147.78	0.005288
1157.42	0.004758
1167.07	0.005558
1176.71	0.011608
1186.36	0.020178
1196	0.018258
1205.64	0.013788
1215.29	0.027968
1224.93	0.049828
1234.58	0.063098
1244.22	0.053038
1253.87	0.025808
1263.51	0.015658
1273.16	0.012118
1282.8	0.011768
1292.45	0.012028
1302.09	0.010178
1311.74	0.007268
1321.38	0.004558
1331.03	0.003278
1340.67	0.003148
1350.32	0.004218
1359.96	0.005628
1369.61	0.005678
1379.25	0.004978
1388.9	0.004208
1398.54	0.003658
1408.18	0.005068
1417.83	0.008748
1427.47	0.010288
1437.12	0.010858
1446.76	0.014288
1456.41	0.016138
1466.05	0.014548
1475.7	0.016448
1485.34	0.032378
1494.99	0.039058
1504.63	0.022208
1514.28	0.009438
1523.92	0.005148
1533.57	0.003558
1543.21	0.003108
1552.86	0.003078
1562.5	0.003388
1572.15	0.005868
1581.79	0.010808
1591.44	0.014368
1601.08	0.013448
1610.73	0.007838
1620.37	0.003328
1630.01	0.002488
1639.66	0.002998
1649.3	0.003178
1658.95	0.002368
1668.59	0.001818
1678.24	0.001598
1687.88	0.001328
1697.53	0.0011888
1707.17	0.0009443
1716.82	0.0010224
1726.46	0.0008501
1736.11	0.0008987
1745.75	0.001166
1755.4	0.0012557
1765.04	0.001186
1774.69	0.0010865
1784.33	0.0010463
1793.98	0.001069
1803.62	0.0010832
1813.27	0.0009321
1822.91	0.0010377
1832.55	0.0011792
1842.2	0.001518
1851.84	0.001958
1861.49	0.001918
1871.13	0.001808
1880.78	0.001868
1890.42	0.001568
1900.07	0.0012179
1909.71	0.0011755
1919.36	0.001498
1929	0.001398
1938.65	0.0010259
1948.29	0.0009473
1957.94	0.0010091
1967.58	0.0010263
1977.23	0.0010034
1986.87	0.0009506
1996.52	0.0010608
2006.16	0.00109
2015.81	0.0010248
2025.45	0.0010087
2035.1	0.0010199
2044.74	0.0010042
2054.38	0.0009992
2064.03	0.0009439
2073.67	0.0010046
2083.32	0.0008618
2092.96	0.0007206
2102.61	0.0005892
2112.25	0.0005533
2121.9	0.0006679
2131.54	0.0005487
2141.19	0.0005773
2150.83	0.0005106
2160.48	0.0004547
2170.12	0.0003689
2179.77	0.0005215
2189.41	0.0005314
2199.06	0.0005885
2208.7	0.0004345
2218.35	0.0006093
2227.99	0.0005825
2237.64	0.000608
2247.28	0.0005917
2256.92	0.0005942
2266.57	0.0005675
2276.21	0.0006528
2285.86	0.0004702
2295.5	0.0004627
2305.15	0.0004558
2314.79	0.0005973
2324.44	0.0006262
2334.08	0.000579
2343.73	0.0006261
2353.37	0.0005241
2363.02	0.0005692
2372.66	0.0004283
2382.31	0.0005449
2391.95	0.0006284
2401.6	0.0005973
2411.24	0.0007107
2420.89	0.0007561
2430.53	0.0007676
2440.18	0.0007793
2449.82	0.000714
2459.47	0.0008197
2469.11	0.0007816
2478.75	0.0007594
2488.4	0.000708
2498.04	0.0005635
2507.69	0.0005094
2517.33	0.0005418
2526.98	0.0006486
2536.62	0.0007069
2546.27	0.0006634
2555.91	0.0005586
2565.56	0.0006957
2575.2	0.0006256
2584.85	0.0007436
2594.49	0.0005846
2604.14	0.0006131
2613.78	0.00037825
2623.43	0.0004572
2633.07	0.00033591
2642.72	0.00036914
2652.36	0.00033977
2662.01	0.0004505
2671.65	0.0004468
2681.29	0.0005103
2690.94	0.0004504
2700.58	0.0006237
2710.23	0.0006618
2719.87	0.0007161
2729.52	0.0008087
2739.16	0.0011554
2748.81	0.000828
2758.45	0.0007392
2768.1	0.0005741
2777.74	0.0007596
2787.39	0.0009623
2797.03	0.001001
2806.68	0.0012304
2816.32	0.001628
2825.97	0.001848
2835.61	0.002608
2845.26	0.003698
2854.9	0.005338
2864.55	0.008018
2874.19	0.009478
2883.84	0.009738
2893.48	0.009048
2903.12	0.009128
2912.77	0.010218
2922.41	0.012198
2932.06	0.014198
2941.7	0.013678
2951.35	0.011408
2960.99	0.009318
2970.64	0.008098
2980.28	0.007918
2989.93	0.007748
2999.57	0.006658
3009.22	0.007128
3018.86	0.010588
3028.51	0.013168
3038.15	0.011508
3047.8	0.009308
3057.44	0.010028
3067.09	0.012248
3076.73	0.013988
3086.38	0.012458
3096.02	0.009018
3105.67	0.005698
3115.31	0.003438
3124.95	0.001928
3134.6	0.0011126
3144.24	0.0009643
3153.89	0.0007138
3163.53	0.000795
3173.18	0.0005048
3182.82	0.0006441
3192.47	0.0004872
3202.11	0.00038589
3211.76	0.000118
3221.4	0.000315638
3231.05	0.000241
3240.69	0.0002341
3250.34	0.0002281
3259.98	0.0002171
3269.63	0.00030336
3279.27	0.000312646
3288.92	0.00034284
3298.56	0.0002687
3308.21	0.0002592
3317.85	0.0002873
3327.49	0.000194
3337.14	0.0002827
3346.78	8.7e-05
3356.43	5.5e-05
3366.07	0.0002283
3375.72	0.00032287
3385.36	0.00034063
3395.01	0.0002812
3404.65	0.00015
3414.3	0.0002146
3423.94	0.0004084
3433.59	7.3e-05
3443.23	0.0002154
3452.88	0.000223
3462.52	0.000208
3472.17	0.000203
3481.81	0.000105
3491.46	0.00037081
3501.1	0.0002881
3510.75	0.00035732
3520.39	0.00037778
3530.04	0.00036358
3539.68	0.0002266
3549.32	0.0002268
3558.97	0.0002276
3568.61	0.0002566
3578.26	0.00036462
3587.9	0.00030001
3597.55	0.00032592
3607.19	0.000146
3616.84	0.0004709
3626.48	0.0002401
3636.13	0.0002838
3645.77	0.00033683
3655.42	0.00033514
3665.06	0.0002493
3674.71	0.0002422
3684.35	0.0002845
3694	0.0002621
3703.64	9.1e-05
3713.29	0.0004215
3722.93	0.000310318
3732.58	0.000113
3742.22	0.000205
3751.86	0.00033352
3761.51	7.7e-05
3771.15	0.000186
3780.8	0.0002141
3790.44	0.0004348
3800.09	0.000273
3809.73	0.000308339
3819.38	0.00029
3829.02	0.0004503
3838.67	0.000114
3848.31	0.0002582
3857.96	0.000155
3867.6	0.0004879
3877.25	0.0004214
3886.89	0.000425
3896.54	0.00034211
3906.18	0.0003424
3915.83	0.0004491
3925.47	0.00031554
3935.12	0.0004313
3944.76	0.000313492
3954.41	0.0004446
3964.05	0.000143
3973.69	0.00040679
3983.34	0.0002368
3992.98	0.00036083
