Infrared Spectrum: 3-CHLOROPROPIOPHENONE
Formula: C9 H9 Cl O
CAS: 936-59-4
State: SOLUTION (10% IN CCl4 FOR 5000-1350 CM^-^1, 10% IN CS2 FOR 1350-625 CM^-^1)
Class: COBLENTZ
Instrument: Not specified, most likely a prism, grating, or hybrid spectrometer.
Sampling: TRANSMISSION
Path length: 0.01 CM, 0.01 CM
Resolution: 4
Origin: DOW CHEMICAL COMPANY
MICROMETERS	TRANSMITTANCE
2.042	0.863
2.08111	0.861
2.12023	0.861
2.15934	0.868
2.19846	0.866
2.23757	0.866
2.27669	0.868
2.3158	0.866
2.35492	0.871
2.39403	0.869
2.43315	0.861
2.47226	0.877
2.51138	0.877
2.55049	0.879
2.58961	0.877
2.62872	0.879
2.66784	0.879
2.70695	0.872
2.74607	0.874
2.78518	0.869
2.8243	0.876
2.86341	0.871
2.90253	0.872
2.94164	0.858
2.98076	0.872
3.01987	0.871
3.05899	0.877
3.0981	0.877
3.13722	0.872
3.17633	0.863
3.21545	0.776
3.25456	0.725
3.29368	0.776
3.33279	0.802
3.37191	0.8
3.41102	0.807
3.45014	0.852
3.48925	0.874
3.52837	0.882
3.56748	0.889
3.6066	0.892
3.64571	0.897
3.68483	0.901
3.72394	0.905
3.76306	0.924
3.80217	0.922
3.84129	0.924
3.8804	0.929
3.91952	0.929
3.95863	0.929
3.99775	0.932
4.03686	0.913
4.07598	0.916
4.11509	0.913
4.15421	0.929
4.19332	0.913
4.23244	0.903
4.27155	0.89
4.31067	0.905
4.34978	0.9
4.3889	0.916
4.42801	0.919
4.46713	0.922
4.50624	0.927
4.54536	0.929
4.58447	0.934
4.62359	0.938
4.6627	0.935
4.70182	0.938
4.74093	0.937
4.78005	0.938
4.81916	0.932
4.85828	0.932
4.89739	0.932
4.93651	0.927
4.97562	0.926
5.01474	0.908
5.05385	0.881
5.09297	0.884
5.13208	0.926
5.1712	0.922
5.21031	0.892
5.24943	0.887
5.28854	0.916
5.32766	0.918
5.36677	0.924
5.40589	0.919
5.445	0.909
5.48412	0.863
5.52323	0.89
5.56235	0.901
5.60146	0.889
5.64058	0.882
5.67969	0.885
5.71881	0.864
5.75792	0.85
5.79704	0.79
5.83615	0.594
5.87527	0.284
5.91438	0.085
5.9535	0.401
5.99261	0.707
6.03173	0.763
6.07084	0.815
6.10996	0.818
6.14907	0.77
6.18819	0.615
6.2273	0.376
6.26641	0.483
6.30553	0.437
6.34464	0.562
6.38376	0.528
6.42287	0.483
6.46199	0.498
6.5011	0.588
6.54022	0.614
6.57933	0.663
6.61845	0.744
6.65756	0.787
6.69668	0.84
6.73579	0.856
6.77491	0.836
6.81402	0.702
6.85314	0.327
6.89225	0.615
6.93137	0.649
6.97048	0.683
7.0096	0.665
7.04871	0.697
7.08783	0.683
7.12694	0.713
7.16606	0.744
7.20517	0.704
7.24429	0.62
7.2834	0.5
7.32252	0.21
7.36163	0.147
7.40075	0.249
7.43986	0.467
7.47898	0.601
7.51809	0.639
7.55721	0.683
7.59632	0.66
7.63544	0.57
7.67455	0.528
7.71367	0.62
7.75278	0.694
7.7919	0.659
7.83101	0.512
7.87013	0.356
7.90924	0.569
7.94836	0.569
7.98747	0.475
8.02659	0.377
8.0657	0.281
8.10482	0.36
8.14393	0.559
8.18305	0.59
8.22216	0.509
8.26128	0.313
8.30039	0.252
8.33951	0.482
8.37862	0.62
8.41774	0.509
8.45685	0.471
8.49597	0.718
8.53508	0.763
8.5742	0.752
8.61331	0.747
8.65243	0.802
8.69154	0.834
8.73066	0.85
8.76977	0.863
8.80889	0.871
8.848	0.881
8.88712	0.89
8.92623	0.898
8.96535	0.9
9.00446	0.897
9.04358	0.876
9.08269	0.861
9.12181	0.871
9.16092	0.881
9.20004	0.874
9.23915	0.85
9.27827	0.799
9.31738	0.774
9.3565	0.718
9.39561	0.72
9.43473	0.757
9.47384	0.699
9.51296	0.712
9.55207	0.818
9.59119	0.863
9.6303	0.869
9.66942	0.826
9.70853	0.758
9.74765	0.819
9.78676	0.852
9.82588	0.861
9.86499	0.868
9.90411	0.84
9.94322	0.694
9.98234	0.683
10.0215	0.779
10.0606	0.717
10.0997	0.639
10.1388	0.561
10.1779	0.503
10.217	0.464
10.2561	0.485
10.2953	0.57
10.3344	0.641
10.3735	0.721
10.4126	0.773
10.4517	0.795
10.4908	0.795
10.5299	0.778
10.5691	0.762
10.6082	0.774
10.6473	0.8
10.6864	0.778
10.7255	0.749
10.7646	0.736
10.8037	0.749
10.8429	0.779
10.882	0.8
10.9211	0.789
10.9602	0.749
10.9993	0.705
11.0384	0.709
11.0776	0.76
11.1167	0.781
11.1558	0.79
11.1949	0.795
11.234	0.8
11.2731	0.794
11.3122	0.786
11.3514	0.776
11.3905	0.765
11.4296	0.755
11.4687	0.745
11.5078	0.736
11.5469	0.723
11.586	0.709
11.6252	0.694
11.6643	0.688
11.7034	0.688
11.7425	0.697
11.7816	0.707
11.8207	0.72
11.8599	0.734
11.899	0.75
11.9381	0.758
11.9772	0.762
12.0163	0.762
12.0554	0.754
12.0945	0.747
12.1337	0.747
12.1728	0.742
12.2119	0.749
12.251	0.757
12.2901	0.763
12.3292	0.768
12.3683	0.774
12.4075	0.778
12.4466	0.774
12.4857	0.771
12.5248	0.768
12.5639	0.766
12.603	0.762
12.6422	0.758
12.6813	0.757
12.7204	0.757
12.7595	0.754
12.7986	0.747
12.8377	0.734
12.8768	0.709
12.916	0.68
12.9551	0.647
12.9942	0.62
13.0333	0.586
13.0724	0.53
13.1115	0.466
13.1506	0.344
13.1898	0.245
13.2289	0.217
13.268	0.262
13.3071	0.307
13.3462	0.307
13.3853	0.237
13.4245	0.146
13.4636	0.098
13.5027	0.154
13.5418	0.297
13.5809	0.418
13.62	0.488
13.6591	0.52
13.6983	0.524
13.7374	0.501
13.7765	0.458
13.8156	0.395
13.8547	0.364
13.8938	0.385
13.9329	0.453
13.9721	0.53
14.0112	0.586
14.0503	0.607
14.0894	0.615
14.1285	0.614
14.1676	0.599
14.2068	0.57
14.2459	0.535
14.285	0.498
14.3241	0.446
14.3632	0.381
14.4023	0.302
14.4414	0.2
14.4806	0.12
14.5197	0.069
14.5588	0.094
14.5979	0.186
14.637	0.297
14.6761	0.368
14.7152	0.406
14.7544	0.414
14.7935	0.414
14.8326	0.409
14.8717	0.411
14.9108	0.416
14.9499	0.432
14.989	0.458
15.0282	0.469
15.0673	0.467
15.1064	0.459
15.1455	0.456
15.1846	0.446
15.2237	0.438
15.2629	0.429
15.302	0.422
15.3411	0.418
15.3802	0.408
15.4193	0.398
15.4584	0.387
15.4975	0.366
15.5367	0.347
15.5758	0.326
15.6149	0.294
15.654	0.26
15.6931	0.22
15.7322	0.191
15.7713	0.168
15.8105	0.157
15.8496	0.151
15.8887	0.149
15.9278	0.218
15.9669	0.316
