Infrared Spectrum: Salicylhydrazide
Formula: C 7 H 8 N 2 O 2
CAS: 936-02-7
State: gas
Origin: EPA-IR VAPOR PHASE LIBRARY
1/CM	ABSORBANCE
549.8	0.005272
559.445	0.004502
569.09	0.003752
578.734	0.003192
588.379	0.003582
598.024	0.003572
607.669	0.003482
617.313	0.003532
626.958	0.003502
636.603	0.003692
646.248	0.003762
655.893	0.005042
665.537	0.007642
675.182	0.008252
684.827	0.007712
694.472	0.008872
704.116	0.009622
713.761	0.008102
723.406	0.008672
733.051	0.014672
742.695	0.024662
752.34	0.025992
761.985	0.015782
771.63	0.007522
781.275	0.005242
790.919	0.004742
800.564	0.005062
810.209	0.006352
819.854	0.008082
829.498	0.007952
839.143	0.006072
848.788	0.005512
858.433	0.005592
868.078	0.005012
877.722	0.004262
887.367	0.004162
897.012	0.004762
906.657	0.007402
916.301	0.013442
925.946	0.023092
935.591	0.026742
945.236	0.017892
954.88	0.007972
964.525	0.004442
974.17	0.003542
983.815	0.002632
993.46	0.002382
1003.1	0.002072
1012.75	0.002642
1022.39	0.003522
1032.04	0.004972
1041.68	0.004712
1051.33	0.001862
1060.97	0.002462
1070.62	0.003082
1080.26	0.002372
1089.91	0.002682
1099.55	0.002552
1109.2	0.002822
1118.84	0.002592
1128.49	0.003732
1138.13	0.005632
1147.78	0.010162
1157.42	0.009612
1167.07	0.005482
1176.71	0.005982
1186.36	0.006912
1196	0.009152
1205.64	0.015972
1215.29	0.025712
1224.93	0.027362
1234.58	0.019212
1244.22	0.017852
1253.87	0.023952
1263.51	0.023432
1273.16	0.016112
1282.8	0.013672
1292.45	0.021492
1302.09	0.033702
1311.74	0.031242
1321.38	0.017602
1331.03	0.013422
1340.67	0.013122
1350.32	0.014782
1359.96	0.014832
1369.61	0.012212
1379.25	0.010052
1388.9	0.009162
1398.54	0.008762
1408.18	0.008362
1417.83	0.008732
1427.47	0.011292
1437.12	0.019142
1446.76	0.030362
1456.41	0.032492
1466.05	0.026562
1475.7	0.029342
1485.34	0.038092
1494.99	0.043332
1504.63	0.039392
1514.28	0.030352
1523.92	0.018712
1533.57	0.011242
1543.21	0.008372
1552.86	0.007192
1562.5	0.007332
1572.15	0.010122
1581.79	0.014052
1591.44	0.019402
1601.08	0.028222
1610.73	0.032132
1620.37	0.028632
1630.01	0.029402
1639.66	0.031382
1649.3	0.033312
1658.95	0.040822
1668.59	0.043452
1678.24	0.031232
1687.88	0.015752
1697.53	0.008212
1707.17	0.005502
1716.82	0.004262
1726.46	0.003222
1736.11	0.002382
1745.75	0.001972
1755.4	0.001752
1765.04	0.001752
1774.69	0.001962
1784.33	0.002022
1793.98	0.001772
1803.62	0.001312
1813.27	0.001412
1822.91	0.001452
1832.55	0.001372
1842.2	0.0011541
1851.84	0.001172
1861.49	0.0011542
1871.13	0.0009729
1880.78	0.0008722
1890.42	0.0009513
1900.07	0.0011417
1909.71	0.0010661
1919.36	0.0008879
1929	0.0009587
1938.65	0.001352
1948.29	0.001222
1957.94	0.0007309
1967.58	0.0006135
1977.23	0.0006028
1986.87	0.0005552
1996.52	0.0005532
2006.16	0.000574
2015.81	0.0004799
2025.45	0.0004781
2035.1	0.000468
2044.74	0.0004043
2054.38	0.0005547
2064.03	0.0004354
2073.67	0.0005521
2083.32	0.0004391
2092.96	0.0005441
2102.61	0.0004695
2112.25	0.0004797
2121.9	0.0005256
2131.54	0.0005133
2141.19	0.0004281
2150.83	0.0004477
2160.48	0.0004776
2170.12	0.0004536
2179.77	0.0003743
2189.41	0.0004046
2199.06	0.0004203
2208.7	0.0004306
2218.35	0.0003911
2227.99	0.0004607
2237.64	0.0003871
2247.28	0.0004236
2256.92	0.0004455
2266.57	0.0004896
2276.21	0.000621
2285.86	0.0005936
2295.5	0.0005374
2305.15	0.0005773
2314.79	0.000627
2324.44	0.0005837
2334.08	0.0006951
2343.73	0.0005916
2353.37	0.0005427
2363.02	0.0005848
2372.66	0.0006002
2382.31	0.0004801
2391.95	0.0006926
2401.6	0.0005657
2411.24	0.0005992
2420.89	0.0006886
2430.53	0.0006271
2440.18	0.000629
2449.82	0.0007273
2459.47	0.0007457
2469.11	0.0006843
2478.75	0.0007087
2488.4	0.0008017
2498.04	0.0009401
2507.69	0.0008908
2517.33	0.0009652
2526.98	0.0010215
2536.62	0.0010627
2546.27	0.000988
2555.91	0.00117
2565.56	0.001292
2575.2	0.001272
2584.85	0.0011279
2594.49	0.001123
2604.14	0.001172
2613.78	0.0011589
2623.43	0.001352
2633.07	0.001282
2642.72	0.001382
2652.36	0.001232
2662.01	0.001147
2671.65	0.001182
2681.29	0.001332
2690.94	0.001282
2700.58	0.001462
2710.23	0.001472
2719.87	0.001572
2729.52	0.001652
2739.16	0.001912
2748.81	0.001882
2758.45	0.002022
2768.1	0.002062
2777.74	0.001842
2787.39	0.001962
2797.03	0.001762
2806.68	0.001972
2816.32	0.001942
2825.97	0.002022
2835.61	0.002012
2845.26	0.002122
2854.9	0.001982
2864.55	0.002102
2874.19	0.002212
2883.84	0.002132
2893.48	0.002352
2903.12	0.002392
2912.77	0.002472
2922.41	0.002702
2932.06	0.002642
2941.7	0.002632
2951.35	0.002852
2960.99	0.002962
2970.64	0.003262
2980.28	0.003542
2989.93	0.003662
2999.57	0.004202
3009.22	0.004762
3018.86	0.005342
3028.51	0.006292
3038.15	0.007722
3047.8	0.009232
3057.44	0.011042
3067.09	0.012732
3076.73	0.012722
3086.38	0.011112
3096.02	0.009742
3105.67	0.008912
3115.31	0.008352
3124.95	0.007882
3134.6	0.007902
3144.24	0.007672
3153.89	0.007772
3163.53	0.007732
3173.18	0.007672
3182.82	0.007842
3192.47	0.007842
3202.11	0.007832
3211.76	0.007852
3221.4	0.007462
3231.05	0.006972
3240.69	0.006952
3250.34	0.006902
3259.98	0.006782
3269.63	0.006732
3279.27	0.006572
3288.92	0.006602
3298.56	0.006292
3308.21	0.006092
3317.85	0.005862
3327.49	0.005672
3337.14	0.005622
3346.78	0.005562
3356.43	0.005392
3366.07	0.005042
3375.72	0.004412
3385.36	0.004142
3395.01	0.004172
3404.65	0.003892
3414.3	0.003732
3423.94	0.003642
3433.59	0.003732
3443.23	0.003872
3452.88	0.004102
3462.52	0.005582
3472.17	0.008352
3481.81	0.010762
3491.46	0.009922
3501.1	0.006212
3510.75	0.003492
3520.39	0.002442
3530.04	0.002142
3539.68	0.001602
3549.32	0.001302
3558.97	0.0010561
3568.61	0.0009448
3578.26	0.0010501
3587.9	0.0007936
3597.55	0.0007379
3607.19	0.0005111
3616.84	0.0005633
3626.48	0.0007309
3636.13	0.0008693
3645.77	0.0007872
3655.42	0.0007985
3665.06	0.0007581
3674.71	0.00025924
3684.35	0.0004479
3694	0.0003897
3703.64	0.000180019
3713.29	0.0004447
3722.93	0.0001587
3732.58	0.0004822
3742.22	0.0003784
3751.86	0.00020262
3761.51	0.000178762
3771.15	0.0003267
3780.8	0.0003246
3790.44	0.00020718
3800.09	0.00042
3809.73	0.0004451
3819.38	0.0003045
3829.02	0.0004224
3838.67	0.0003066
3848.31	0.00025832
3857.96	0.0002047
3867.6	0.0003629
3877.25	0.000416
3886.89	0.000335
3896.54	0.0004199
3906.18	0.0004751
3915.83	0.00021246
3925.47	0.00019955
3935.12	0.000176493
3944.76	0.00023563
3954.41	0.0005301
3964.05	0.000293
3973.69	0.0003067
3983.34	0.0001522
3992.98	0.0001126
