Infrared Spectrum: 1-Morpholinocyclopentene
Formula: C 9 H 15 N O
CAS: 936-52-7
State: gas
Origin: EPA-IR VAPOR PHASE LIBRARY
1/CM	ABSORBANCE
549.8	0.00271
559.445	0.00124
569.09	0.0006819
578.735	0.0002839
588.38	0.0006039
598.025	0.0007227
607.67	0.0009611
617.315	0.00128
626.96	0.00125
636.605	0.00105
646.251	0.0007654
655.896	0.0008818
665.541	0.00153
675.186	0.00281
684.831	0.00308
694.476	0.00168
704.121	0.00113
713.766	0.0007862
723.411	0.0008495
733.056	0.0013
742.701	0.00273
752.346	0.00547
761.991	0.00857
771.636	0.00924
781.281	0.00549
790.926	0.00283
800.571	0.00171
810.216	0.0016
819.861	0.00146
829.507	0.00123
839.152	0.00173
848.797	0.00285
858.442	0.00541
868.087	0.0061
877.732	0.00351
887.377	0.00318
897.022	0.0052
906.667	0.01111
916.312	0.0162
925.957	0.01702
935.602	0.01516
945.247	0.00818
954.892	0.00366
964.537	0.00316
974.182	0.00255
983.827	0.00169
993.472	0.00157
1003.12	0.002
1012.76	0.00364
1022.41	0.00808
1032.05	0.01087
1041.7	0.00787
1051.34	0.0048
1060.99	0.00396
1070.63	0.00474
1080.28	0.00481
1089.92	0.00499
1099.57	0.00924
1109.21	0.0214
1118.86	0.03914
1128.5	0.04049
1138.15	0.02596
1147.79	0.01107
1157.44	0.0062
1167.08	0.0067
1176.73	0.00941
1186.37	0.0105
1196.02	0.0112
1205.66	0.01423
1215.31	0.01814
1224.95	0.02383
1234.6	0.03031
1244.24	0.02819
1253.89	0.02132
1263.53	0.01727
1273.18	0.01442
1282.82	0.01347
1292.47	0.01365
1302.11	0.01167
1311.76	0.00672
1321.4	0.00613
1331.05	0.00683
1340.69	0.01044
1350.34	0.01557
1359.98	0.01719
1369.63	0.02348
1379.27	0.02743
1388.92	0.01739
1398.56	0.00941
1408.21	0.00572
1417.85	0.00417
1427.5	0.00419
1437.14	0.00659
1446.79	0.01327
1456.43	0.01485
1466.08	0.00849
1475.73	0.00403
1485.37	0.00251
1495.02	0.00197
1504.66	0.00195
1514.31	0.00216
1523.95	0.00265
1533.6	0.00279
1543.24	0.00221
1552.89	0.002
1562.53	0.00212
1572.18	0.00222
1581.82	0.00258
1591.47	0.00383
1601.11	0.00649
1610.76	0.01436
1620.4	0.03729
1630.05	0.05458
1639.69	0.03161
1649.34	0.00824
1658.98	0.00397
1668.63	0.00268
1678.27	0.00217
1687.92	0.00183
1697.56	0.00161
1707.21	0.00146
1716.85	0.00125
1726.5	0.00106
1736.14	0.0008639
1745.79	0.0009177
1755.43	0.0008381
1765.08	0.0008454
1774.72	0.0008361
1784.37	0.0008253
1794.01	0.0007469
1803.66	0.0006623
1813.3	0.0005873
1822.95	0.0005269
1832.59	0.0005669
1842.24	0.0005942
1851.88	0.0006158
1861.53	0.0006002
1871.17	0.0005857
1880.82	0.0005708
1890.46	0.0005933
1900.11	0.0006051
1909.75	0.0007861
1919.4	0.0009543
1929.04	0.00112
1938.69	0.00111
1948.33	0.00104
1957.98	0.000956
1967.62	0.00102
1977.27	0.00115
1986.91	0.00119
1996.56	0.00102
2006.2	0.0007708
2015.85	0.0007019
2025.49	0.0007231
2035.14	0.0007567
2044.78	0.0007422
2054.43	0.0007621
2064.07	0.0006764
2073.72	0.0006274
2083.36	0.0005893
2093.01	0.0006169
2102.65	0.0006266
2112.3	0.0006136
2121.94	0.0005745
2131.59	0.0006476
2141.23	0.0006451
2150.88	0.0006006
2160.52	0.0006212
2170.17	0.0006885
2179.81	0.0006993
2189.46	0.0006237
2199.1	0.0005926
2208.75	0.0005919
2218.39	0.0006207
2228.04	0.000668
2237.68	0.0006714
2247.33	0.0007347
2256.97	0.0006858
2266.62	0.0006196
2276.26	0.000685
2285.91	0.0007117
2295.55	0.0007593
2305.2	0.0009295
2314.84	0.0008904
2324.49	0.0008309
2334.13	0.0007441
2343.78	0.0007539
2353.42	0.0007701
2363.07	0.0007273
2372.72	0.0006983
2382.36	0.0006706
2392.01	0.0006893
2401.65	0.0007242
2411.3	0.0006296
2420.94	0.0006905
2430.59	0.0006884
2440.23	0.0006173
2449.88	0.0006911
2459.52	0.00078
2469.17	0.0008129
2478.81	0.0008541
2488.46	0.0007973
2498.1	0.0008276
2507.75	0.0007425
2517.39	0.0007808
2527.04	0.0006982
2536.68	0.0008171
2546.33	0.0008108
2555.97	0.001
2565.62	0.00106
2575.26	0.00113
2584.91	0.00101
2594.55	0.00103
2604.2	0.0009277
2613.84	0.0009595
2623.49	0.0009832
2633.13	0.00108
2642.78	0.00124
2652.42	0.00161
2662.07	0.00204
2671.71	0.00235
2681.36	0.00296
2691	0.0032
2700.65	0.00322
2710.29	0.00316
2719.94	0.0033
2729.58	0.00366
2739.23	0.00417
2748.87	0.00445
2758.52	0.00487
2768.16	0.00488
2777.81	0.00466
2787.45	0.00508
2797.1	0.00716
2806.74	0.01281
2816.39	0.02389
2826.03	0.03534
2835.68	0.0372
2845.32	0.04432
2854.97	0.06231
2864.61	0.06142
2874.26	0.04013
2883.9	0.03063
2893.55	0.03072
2903.19	0.0338
2912.84	0.03398
2922.48	0.0338
2932.13	0.03362
2941.77	0.03662
2951.42	0.04975
2961.06	0.07159
2970.71	0.06602
2980.35	0.03766
2990	0.01318
2999.64	0.00612
3009.29	0.00428
3018.93	0.00356
3028.58	0.00293
3038.22	0.00236
3047.87	0.00232
3057.51	0.00332
3067.16	0.00624
3076.8	0.00776
3086.45	0.0047
3096.09	0.00181
3105.74	0.00102
3115.38	0.0009641
3125.03	0.0009282
3134.67	0.0007225
3144.32	0.0006897
3153.96	0.000477
3163.61	0.0004845
3173.25	0.0005732
3182.9	0.0005663
3192.54	0.0005143
3202.19	0.0003913
3211.83	0.0004358
3221.48	0.0005214
3231.12	0.0005391
3240.77	0.0004822
3250.41	0.0004624
3260.06	0.0003457
3269.7	0.0004557
3279.35	0.0004314
3289	0.0003172
3298.64	0.0003517
3308.29	0.0003957
3317.93	0.0004052
3327.58	0.0004272
3337.22	0.0002107
3346.87	0.0003485
3356.51	0.00034
3366.16	0.0003662
3375.8	0.000339
3385.45	0.0004035
3395.09	0.0002564
3404.74	0.0004114
3414.38	0.0004254
3424.03	0.0003175
3433.67	0.0004161
3443.32	0.0003001
3452.96	0.0004221
3462.61	0.0005045
3472.25	0.0003603
3481.9	0.0002692
3491.54	0.0004068
3501.19	0.0003887
3510.83	0.0004694
3520.48	0.000412
3530.12	0.0003844
3539.77	0.0004128
3549.41	0.0003162
3559.06	0.0002718
3568.7	0.0005752
3578.35	0.0005045
3587.99	0.0004675
3597.64	0.000433
3607.28	0.0003116
3616.93	0.0004533
3626.57	0.0003304
3636.22	0.0003846
3645.86	0.0003987
3655.51	0.0003288
3665.15	0.0005323
3674.8	0.000361
3684.44	0.0004015
3694.09	0.000459
3703.73	0.0004396
3713.38	0.0004313
3723.02	0.0005085
3732.67	0.0003943
3742.31	0.0003078
3751.96	0.000622
3761.6	0.0005323
3771.25	0.0005227
3780.89	0.0005117
3790.54	0.0006916
3800.18	0.0006442
3809.83	0.0004969
3819.47	0.0004663
3829.12	0.000485
3838.76	0.0005033
3848.41	0.0006709
3858.05	0.0005145
3867.7	0.000561
3877.34	0.0006052
3886.99	0.0006594
3896.63	0.0004782
3906.28	0.0007453
3915.92	0.0007665
3925.57	0.0004576
3935.21	0.000505
3944.86	0.0005269
3954.5	0.0005394
3964.15	0.0007383
3973.79	0.0007611
3983.44	0.0007898
3993.08	0.0007315
