Infrared Spectrum: 5,8-DIHYDRO-2-PHENYL-5,8-ETHANO-1,4-NAPHTHOQUINONE
Formula: C18 H14 O2
CAS: 93655-07-3
State: SOLID (KBr PRESSING)
Melting point: 111.5-113 C
Class: COBLENTZ
Instrument: Not specified, most likely a prism, grating, or hybrid spectrometer.
Sampling: TRANSMISSION
Resolution: 4
Origin: EASTMAN KODAK COMPANY, RESEARCH LABORATORIES, ROCHESTER, N.Y.
MICROMETERS	TRANSMITTANCE
2.013	0.691
2.05312	0.691
2.09323	0.692
2.13335	0.692
2.17347	0.692
2.21358	0.692
2.2537	0.694
2.29382	0.696
2.33393	0.697
2.37405	0.697
2.41417	0.701
2.45429	0.704
2.4944	0.707
2.53452	0.707
2.57464	0.707
2.61475	0.707
2.65487	0.712
2.69499	0.719
2.7351	0.722
2.77522	0.72
2.81534	0.704
2.85545	0.635
2.89557	0.599
2.93569	0.573
2.9758	0.574
3.01592	0.622
3.05604	0.642
3.09615	0.648
3.13627	0.674
3.17639	0.702
3.2165	0.711
3.25662	0.711
3.29674	0.66
3.33686	0.686
3.37697	0.627
3.41709	0.591
3.45721	0.663
3.49732	0.648
3.53744	0.73
3.57756	0.758
3.61767	0.768
3.65779	0.778
3.69791	0.783
3.73802	0.786
3.77814	0.791
3.81826	0.794
3.85837	0.799
3.89849	0.802
3.93861	0.806
3.97872	0.812
4.01884	0.817
4.05896	0.819
4.09907	0.819
4.13919	0.825
4.17931	0.829
4.21943	0.825
4.25954	0.825
4.29966	0.83
4.33978	0.839
4.37989	0.839
4.42001	0.84
4.46013	0.84
4.50024	0.842
4.54036	0.845
4.58048	0.848
4.62059	0.848
4.66071	0.85
4.70083	0.852
4.74094	0.852
4.78106	0.852
4.82118	0.852
4.86129	0.853
4.90141	0.855
4.94153	0.857
4.98165	0.858
5.02176	0.858
5.06188	0.858
5.102	0.857
5.14211	0.857
5.18223	0.86
5.22235	0.863
5.26246	0.863
5.30258	0.865
5.3427	0.866
5.38281	0.87
5.42293	0.871
5.46305	0.875
5.50316	0.875
5.54328	0.868
5.5834	0.87
5.62351	0.871
5.66363	0.87
5.70375	0.857
5.74386	0.848
5.78398	0.847
5.8241	0.847
5.86422	0.847
5.90433	0.842
5.94445	0.812
5.98457	0.706
6.02468	0.228
6.0648	0.09
6.10492	0.415
6.14503	0.346
6.18515	0.64
6.22527	0.597
6.26538	0.54
6.3055	0.298
6.34562	0.533
6.38573	0.648
6.42585	0.729
6.46597	0.786
6.50608	0.802
6.5462	0.821
6.58632	0.829
6.62643	0.827
6.66655	0.738
6.70667	0.704
6.74679	0.796
6.7869	0.799
6.82702	0.775
6.86714	0.756
6.90725	0.577
6.94737	0.779
6.98749	0.83
7.0276	0.829
7.06772	0.837
7.10784	0.837
7.14795	0.821
7.18807	0.788
7.22819	0.781
7.2683	0.796
7.30842	0.804
7.34854	0.806
7.38865	0.807
7.42877	0.758
7.46889	0.527
7.50901	0.444
7.54912	0.633
7.58924	0.661
7.62936	0.632
7.66947	0.625
7.70959	0.656
7.74971	0.543
7.78982	0.574
7.82994	0.711
7.87006	0.433
7.91017	0.605
7.95029	0.738
7.99041	0.756
8.03052	0.704
8.07064	0.341
8.11076	0.343
8.15087	0.563
8.19099	0.715
8.23111	0.776
8.27122	0.75
8.31134	0.638
8.35146	0.796
8.39158	0.802
8.43169	0.802
8.47181	0.812
8.51193	0.827
8.55204	0.83
8.59216	0.824
8.63228	0.725
8.67239	0.696
8.71251	0.77
8.75263	0.689
8.79274	0.628
8.83286	0.775
8.87298	0.802
8.91309	0.799
8.95321	0.796
8.99333	0.799
9.03344	0.802
9.07356	0.812
9.11368	0.817
9.1538	0.821
9.19391	0.824
9.23403	0.816
9.27415	0.748
9.31426	0.715
9.35438	0.656
9.3945	0.656
9.43461	0.729
9.47473	0.788
9.51485	0.794
9.55496	0.796
9.59508	0.794
9.6352	0.724
9.67531	0.673
9.71543	0.733
9.75555	0.775
9.79566	0.784
9.83578	0.789
9.8759	0.788
9.91601	0.717
9.95613	0.697
9.99625	0.717
10.0364	0.678
10.0765	0.733
10.1166	0.77
10.1567	0.791
10.1968	0.804
10.2369	0.819
10.2771	0.822
10.3172	0.827
10.3573	0.827
10.3974	0.827
10.4375	0.827
10.4777	0.827
10.5178	0.827
10.5579	0.824
10.598	0.825
10.6381	0.83
10.6782	0.832
10.7184	0.824
10.7585	0.781
10.7986	0.807
10.8387	0.819
10.8788	0.827
10.9189	0.829
10.9591	0.829
10.9992	0.824
11.0393	0.811
11.0794	0.743
11.1195	0.543
11.1596	0.343
11.1998	0.551
11.2399	0.729
11.28	0.765
11.3201	0.783
11.3602	0.786
11.4003	0.773
11.4405	0.701
11.4806	0.714
11.5207	0.737
11.5608	0.776
11.6009	0.783
11.641	0.784
11.6812	0.784
11.7213	0.781
11.7614	0.765
11.8015	0.724
11.8416	0.645
11.8817	0.637
11.9219	0.704
11.962	0.724
12.0021	0.699
12.0422	0.651
12.0823	0.586
12.1224	0.623
12.1626	0.688
12.2027	0.706
12.2428	0.711
12.2829	0.709
12.323	0.709
12.3631	0.694
12.4033	0.632
12.4434	0.61
12.4835	0.666
12.5236	0.702
12.5637	0.711
12.6038	0.715
12.644	0.722
12.6841	0.727
12.7242	0.727
12.7643	0.722
12.8044	0.701
12.8445	0.62
12.8847	0.497
12.9248	0.284
12.9649	0.325
13.005	0.495
13.0451	0.604
13.0852	0.65
13.1254	0.681
13.1655	0.688
13.2056	0.692
13.2457	0.699
13.2858	0.702
13.3259	0.706
13.3661	0.707
13.4062	0.706
13.4463	0.694
13.4864	0.658
13.5265	0.594
13.5666	0.571
13.6068	0.581
13.6469	0.555
13.687	0.505
13.7271	0.54
13.7672	0.568
13.8073	0.579
13.8475	0.605
13.8876	0.633
13.9277	0.646
13.9678	0.594
14.0079	0.566
14.048	0.604
14.0882	0.607
14.1283	0.566
14.1684	0.467
14.2085	0.318
14.2486	0.208
14.2887	0.201
14.3289	0.205
14.369	0.239
14.4091	0.346
14.4492	0.451
14.4893	0.512
14.5294	0.559
14.5696	0.577
14.6097	0.577
14.6498	0.571
14.6899	0.556
14.73	0.558
14.7702	0.566
14.8103	0.579
14.8504	0.582
14.8905	0.571
14.9306	0.518
14.9707	0.599
15.0109	0.742
15.051	0.656
15.0911	0.64
15.1312	0.637
15.1713	0.633
15.2114	0.633
15.2516	0.637
15.2917	0.635
15.3318	0.635
15.3719	0.637
15.412	0.64
15.4521	0.642
15.4923	0.65
15.5324	0.651
15.5725	0.651
15.6126	0.651
15.6527	0.651
15.6928	0.651
15.733	0.651
15.7731	0.65
15.8132	0.646
15.8533	0.646
15.8934	0.646
15.9335	0.648
15.9737	0.648
