Infrared Spectrum: 2-Allyl-4-methyl-4-pentenoic acid
Formula: C9 H14 O2
CAS: 93681-82-4
State: SOLUTION (10% CCl4 FOR 3800-1330, 10% CS2 FOR 1330-460 CM^-^1)
Class: COBLENTZ III
Instrument: DOW KBr FOREPRISM-GRATING
Instrument parameters: BLAZED AT 3.5, 12.0, 20.0 MICRON AND CHANGED AT 5.0, 7.5, 14.9 MICRON
Sampling: TRANSMISSION
Path length: 0.011 CM, 0.011 CM
Resolution: 2
Origin: DOW CHEMICAL COMPANY
1/CM	TRANSMITTANCE
3800	0.918
3791	0.9246
3782	0.9188
3773	0.9187
3764	0.9193
3755	0.9243
3746	0.9229
3737	0.934
3728	0.9256
3719	0.9248
3710	0.9208
3701	0.9208
3692	0.9074
3683	0.9049
3674	0.9053
3665	0.9026
3656	0.9038
3647	0.9109
3638	0.9129
3629	0.9058
3620	0.9092
3611	0.9047
3602	0.906
3593	0.9014
3584	0.9003
3575	0.8937
3566	0.891
3557	0.8899
3548	0.8825
3539	0.8615
3530	0.8422
3521	0.8375
3512	0.8406
3503	0.8475
3494	0.8471
3485	0.8431
3476	0.8358
3467	0.8305
3458	0.8252
3449	0.82
3440	0.8134
3431	0.8062
3422	0.799
3413	0.7907
3404	0.7805
3395	0.7661
3386	0.751
3377	0.737
3368	0.7237
3359	0.7094
3350	0.6955
3341	0.6817
3332	0.6685
3323	0.6552
3314	0.6398
3305	0.6257
3296	0.6092
3287	0.5885
3278	0.5653
3269	0.5474
3260	0.5289
3251	0.4961
3242	0.472
3233	0.4438
3224	0.4227
3215	0.4029
3206	0.3836
3197	0.3671
3188	0.3503
3179	0.3342
3170	0.3167
3161	0.2983
3152	0.2786
3143	0.2565
3134	0.2411
3125	0.2281
3116	0.2112
3107	0.1934
3098	0.1699
3089	0.1173
3080	0.0868
3071	0.1184
3062	0.1416
3053	0.1506
3044	0.1518
3035	0.1474
3026	0.1462
3017	0.1456
3008	0.1364
2999	0.1296
2990	0.0923
2981	0.0758
2972	0.0808
2963	0.0981
2954	0.0869
2945	0.0784
2936	0.0751
2927	0.0813
2918	0.0755
2909	0.0832
2900	0.0972
2891	0.1154
2882	0.1343
2873	0.1491
2864	0.1536
2855	0.16
2846	0.1787
2837	0.2122
2828	0.2375
2819	0.2631
2810	0.2876
2801	0.3143
2792	0.3328
2783	0.3431
2774	0.3452
2765	0.3436
2756	0.3451
2747	0.3599
2738	0.3672
2729	0.3746
2720	0.3871
2711	0.3859
2702	0.3629
2693	0.3419
2684	0.3319
2675	0.3346
2666	0.3468
2657	0.357
2648	0.3639
2639	0.3687
2630	0.3711
2621	0.3741
2612	0.3789
2603	0.3841
2594	0.3897
2585	0.3961
2576	0.4024
2567	0.4114
2558	0.422
2549	0.4355
2540	0.4549
2531	0.4824
2522	0.501
2513	0.5173
2504	0.5338
2495	0.5509
2486	0.5692
2477	0.5914
2468	0.6104
2459	0.63
2450	0.6484
2441	0.6661
2432	0.6797
2423	0.6931
2414	0.7045
2405	0.7178
2396	0.7283
2387	0.7401
2378	0.751
2369	0.7558
2360	0.7603
2351	0.7656
2342	0.7705
2333	0.77
2324	0.7781
2315	0.7804
2306	0.7832
2297	0.7875
2288	0.7902
2279	0.7933
2270	0.7949
2261	0.7979
2252	0.8024
2243	0.8061
2234	0.8097
2225	0.8134
2216	0.8137
2207	0.8146
2198	0.8152
2189	0.8138
2180	0.8136
2171	0.8144
2162	0.8157
2153	0.8196
2144	0.8226
2135	0.8237
2126	0.824
2117	0.824
2108	0.8238
2099	0.8233
2090	0.8223
2081	0.8198
2072	0.8141
2063	0.8145
2054	0.8175
2045	0.8155
2036	0.814
2027	0.8117
2018	0.809
2009	0.8056
2000	0.7832
1991	0.7715
1982	0.7638
1973	0.7618
1964	0.7636
1955	0.7663
1946	0.7604
1937	0.7592
1928	0.7585
1919	0.7565
1910	0.749
1901	0.7477
1892	0.7441
1883	0.7408
1874	0.7349
1865	0.7261
1856	0.7083
1847	0.6759
1838	0.6573
1829	0.6732
1820	0.68
1811	0.6674
1802	0.6445
1793	0.6328
1784	0.6077
1775	0.5787
1766	0.5761
1757	0.4728
1748	0.4454
1739	0.3768
1730	0.2265
1721	0.0277
1712	0.0001
1703	0
1694	0.1298
1685	0.2899
1676	0.4125
1667	0.4634
1658	0.438
1649	0.274
1640	0.3421
1631	0.589
1622	0.6376
1613	0.6752
1604	0.6994
1595	0.7054
1586	0.698
1577	0.6964
1568	0.6639
1559	0.6506
1550	0.6778
1541	0.7309
1532	0.7212
1523	0.7238
1514	0.7382
1505	0.7418
1496	0.7358
1487	0.726
1478	0.6934
1469	0.5771
1460	0.3893
1451	0.1729
1442	0.118
1433	0.2448
1424	0.2394
1415	0.2635
1406	0.3802
1397	0.5549
1388	0.5906
1379	0.3637
1370	0.6416
1361	0.6417
1352	0.5684
1343	0.5271
1334	0.579
1325	0.5577
1316	0.4397
1307	0.3044
1298	0.2299
1289	0.1513
1280	0.224
1271	0.2991
1262	0.3326
1253	0.1837
1244	0.1429
1235	0.2302
1226	0.3576
1217	0.2591
1208	0.232
1199	0.4047
1190	0.4716
1181	0.5289
1172	0.5898
1163	0.6769
1154	0.7224
1145	0.7476
1136	0.7398
1127	0.7164
1118	0.704
1109	0.7076
1100	0.766
1091	0.8136
1082	0.818
1073	0.7943
1064	0.7966
1055	0.7758
1046	0.7523
1037	0.7576
1028	0.7376
1019	0.7085
1010	0.6927
1001	0.5685
992	0.3733
983	0.4437
974	0.5132
965	0.4383
956	0.3776
947	0.3154
938	0.2708
929	0.2586
920	0.115
911	0.0744
902	0.2491
893	0.0445
884	0.2388
875	0.4766
866	0.5637
857	0.6429
848	0.6667
839	0.6744
830	0.6985
821	0.6693
812	0.6975
803	0.7853
794	0.8206
785	0.836
776	0.8431
767	0.8465
758	0.8467
749	0.8463
740	0.8542
731	0.8647
722	0.8737
713	0.8609
704	0.8182
695	0.8219
686	0.8024
677	0.7695
668	0.735
659	0.6906
650	0.6662
641	0.6308
632	0.7019
623	0.7507
614	0.7888
605	0.8317
596	0.8576
587	0.86
578	0.8378
569	0.78
560	0.7008
551	0.6799
542	0.7271
533	0.7916
524	0.8208
515	0.8281
506	0.8235
497	0.825
488	0.8438
479	0.861
470	0.8668
461	0.8591
