Infrared Spectrum: 3-Acetoxybenzofuran
Formula: C 10 H 8 O 3
CAS: 93680-80-9
State: gas
Origin: EPA-IR VAPOR PHASE LIBRARY
1/CM	ABSORBANCE
549.8	0.009048
559.445	0.007338
569.09	0.007378
578.734	0.004818
588.379	0.006178
598.024	0.006478
607.669	0.005168
617.313	0.003838
626.958	0.003628
636.603	0.004538
646.248	0.007378
655.893	0.005718
665.537	0.002188
675.182	0.002208
684.827	0.002058
694.472	0.001968
704.116	0.002898
713.761	0.004588
723.406	0.017098
733.051	0.059848
742.695	0.107248
752.34	0.048228
761.985	0.015728
771.63	0.012108
781.275	0.015548
790.919	0.012948
800.564	0.007608
810.209	0.004488
819.854	0.002958
829.498	0.004828
839.143	0.007888
848.788	0.018048
858.433	0.019868
868.078	0.014258
877.722	0.021648
887.367	0.031548
897.012	0.020258
906.657	0.007748
916.301	0.005188
925.946	0.004598
935.591	0.003528
945.236	0.003258
954.88	0.003248
964.525	0.004828
974.17	0.006008
983.815	0.007998
993.46	0.012608
1003.1	0.024348
1012.75	0.022678
1022.39	0.009188
1032.04	0.007398
1041.68	0.007338
1051.33	0.008978
1060.97	0.012748
1070.62	0.023818
1080.26	0.043578
1089.91	0.068358
1099.55	0.095388
1109.2	0.065198
1118.84	0.064008
1128.49	0.056198
1138.13	0.023338
1147.78	0.021078
1157.42	0.035548
1167.07	0.062128
1176.71	0.148038
1186.36	0.270878
1196	0.250088
1205.64	0.248488
1215.29	0.239978
1224.93	0.156228
1234.58	0.063628
1244.22	0.032908
1253.87	0.020758
1263.51	0.018868
1273.16	0.026928
1282.8	0.026578
1292.45	0.014378
1302.09	0.008578
1311.74	0.010028
1321.38	0.012858
1331.03	0.017118
1340.67	0.029798
1350.32	0.047248
1359.96	0.066428
1369.61	0.063198
1379.25	0.042618
1388.9	0.019478
1398.54	0.010748
1408.18	0.008678
1417.83	0.009078
1427.47	0.010938
1437.12	0.017998
1446.76	0.040708
1456.41	0.046898
1466.05	0.018628
1475.7	0.009658
1485.34	0.007958
1494.99	0.006558
1504.63	0.006638
1514.28	0.006478
1523.92	0.007528
1533.57	0.008378
1543.21	0.009998
1552.86	0.011858
1562.5	0.015528
1572.15	0.028628
1581.79	0.032718
1591.44	0.017508
1601.08	0.013848
1610.73	0.014878
1620.37	0.014388
1630.01	0.009098
1639.66	0.005778
1649.3	0.005208
1658.95	0.005808
1668.59	0.006368
1678.24	0.005428
1687.88	0.004868
1697.53	0.004558
1707.17	0.005178
1716.82	0.006708
1726.46	0.009078
1736.11	0.013008
1745.75	0.020218
1755.4	0.030818
1765.04	0.045628
1774.69	0.065378
1784.33	0.102068
1793.98	0.118518
1803.62	0.083248
1813.27	0.046738
1822.91	0.024078
1832.55	0.013308
1842.2	0.008238
1851.84	0.006358
1861.49	0.005348
1871.13	0.004738
1880.78	0.005288
1890.42	0.005358
1900.07	0.004408
1909.71	0.003808
1919.36	0.004758
1929	0.004848
1938.65	0.003448
1948.29	0.002818
1957.94	0.003018
1967.58	0.002838
1977.23	0.002668
1986.87	0.002368
1996.52	0.002398
2006.16	0.002478
2015.81	0.002558
2025.45	0.002368
2035.1	0.002298
2044.74	0.002118
2054.38	0.002488
2064.03	0.002708
2073.67	0.003238
2083.32	0.003348
2092.96	0.003678
2102.61	0.003268
2112.25	0.002848
2121.9	0.002608
2131.54	0.002168
2141.19	0.002088
2150.83	0.001738
2160.48	0.002018
2170.12	0.001928
2179.77	0.002098
2189.41	0.001888
2199.06	0.001918
2208.7	0.001688
2218.35	0.001638
2227.99	0.0015759
2237.64	0.001868
2247.28	0.001808
2256.92	0.002078
2266.57	0.002008
2276.21	0.001908
2285.86	0.001403
2295.5	0.0013861
2305.15	0.0016156
2314.79	0.001581
2324.44	0.0015545
2334.08	0.0014393
2343.73	0.0016085
2353.37	0.002068
2363.02	0.001898
2372.66	0.002238
2382.31	0.002118
2391.95	0.001748
2401.6	0.001658
2411.24	0.001828
2420.89	0.001968
2430.53	0.001948
2440.18	0.001948
2449.82	0.002228
2459.47	0.002418
2469.11	0.002218
2478.75	0.001988
2488.4	0.0013477
2498.04	0.0015625
2507.69	0.0014751
2517.33	0.0013981
2526.98	0.001565
2536.62	0.0014315
2546.27	0.001738
2555.91	0.0012018
2565.56	0.0014013
2575.2	0.0013197
2584.85	0.0010264
2594.49	0.0010894
2604.14	0.0014528
2613.78	0.0010352
2623.43	0.0011517
2633.07	0.0014551
2642.72	0.0011786
2652.36	0.001238
2662.01	0.0015758
2671.65	0.002068
2681.29	0.002138
2690.94	0.001828
2700.58	0.001888
2710.23	0.001788
2719.87	0.001668
2729.52	0.0014221
2739.16	0.0014384
2748.81	0.0013441
2758.45	0.0014403
2768.1	0.0011967
2777.74	0.0014452
2787.39	0.0012039
2797.03	0.0015492
2806.68	0.00162
2816.32	0.0013591
2825.97	0.0012345
2835.61	0.0013473
2845.26	0.0013031
2854.9	0.0014111
2864.55	0.001648
2874.19	0.0013597
2883.84	0.0013029
2893.48	0.0010279
2903.12	0.0015438
2912.77	0.001718
2922.41	0.0015229
2932.06	0.001928
2941.7	0.002818
2951.35	0.003658
2960.99	0.002908
2970.64	0.002618
2980.28	0.002128
2989.93	0.002188
2999.57	0.002048
3009.22	0.001908
3018.86	0.002868
3028.51	0.004818
3038.15	0.007178
3047.8	0.010148
3057.44	0.013698
3067.09	0.016418
3076.73	0.016198
3086.38	0.014448
3096.02	0.011798
3105.67	0.006028
3115.31	0.003058
3124.95	0.001898
3134.6	0.0016213
3144.24	0.002038
3153.89	0.001998
3163.53	0.0014202
3173.18	0.002178
3182.82	0.002898
3192.47	0.003448
3202.11	0.003308
3211.76	0.001898
3221.4	0.0013911
3231.05	0.0009915
3240.69	0.0010291
3250.34	0.00067622
3259.98	0.0012212
3269.63	0.0012262
3279.27	0.0011016
3288.92	0.00047
3298.56	0.001293
3308.21	0.0005683
3317.85	0.00071392
3327.49	0.0009669
3337.14	0.0010766
3346.78	0.0009437
3356.43	0.0007554
3366.07	0.0010194
3375.72	0.00067516
3385.36	0.0010264
3395.01	0.00067253
3404.65	0.00066166
3414.3	0.0011949
3423.94	0.0010621
3433.59	0.0009917
3443.23	0.0010899
3452.88	0.0011914
3462.52	0
3472.17	0.0008935
3481.81	0.000523
3491.46	0.0008288
3501.1	0.0013855
3510.75	0.000629982
3520.39	0.002288
3530.04	0.002058
3539.68	0.001998
3549.32	0.0015804
3558.97	0.001658
3568.61	0.001878
3578.26	0.0015239
3587.9	0.001718
3597.55	0.001708
3607.19	0.0014805
3616.84	0.0008901
3626.48	0.0011266
3636.13	0.0010448
3645.77	0.0011873
3655.42	0.000933
3665.06	0.0008787
3674.71	0.0005382
3684.35	8.1e-05
3694	0.0009306
3703.64	0.0011441
3713.29	0.001165
3722.93	0.0010241
3732.58	0.0011551
3742.22	0.0012904
3751.86	0.0007714
3761.51	0.001908
3771.15	0.0012253
3780.8	0.001066
3790.44	0.0007807
3800.09	4.5e-05
3809.73	0.0006761
3819.38	0.0012564
3829.02	0.0007837
3838.67	0.0010227
3848.31	0.0009255
3857.96	0.00028
3867.6	0.0011428
3877.25	0.0007333
3886.89	0.0010762
3896.54	0.000298
3906.18	0.0009966
3915.83	0.0013811
3925.47	0.0015104
3935.12	0.0009203
3944.76	0.0011119
3954.41	0.0011324
3964.05	0.000909
3973.69	0.00071701
3983.34	0.0010579
3992.98	0.0007792
