Infrared Spectrum: m-Chloroperoxybenzoic acid
Formula: C 7 H 5 Cl O 3
CAS: 937-14-4
State: gas
Origin: EPA-IR VAPOR PHASE LIBRARY
1/CM	ABSORBANCE
549.8	0.006494
559.445	0.007064
569.09	0.009374
578.735	0.012394
588.38	0.009964
598.025	0.005494
607.67	0.002964
617.315	0.003344
626.96	0.012394
636.605	0.012074
646.251	0.002984
655.896	0.0012874
665.541	0.002044
675.186	0.005524
684.831	0.014334
694.476	0.013284
704.121	0.002674
713.766	0.0011739
723.411	0.002054
733.056	0.006124
742.701	0.013714
752.346	0.020364
761.991	0.010434
771.636	0.004164
781.281	0.002584
790.926	0.002034
800.571	0.002144
810.216	0.002814
819.861	0.004794
829.507	0.005564
839.152	0.002974
848.797	0.0010699
858.442	0.0006128
868.087	0.00056
877.732	0.0008408
887.377	0.001364
897.022	0.001994
906.667	0.001884
916.312	0.0012918
925.957	0.0008357
935.602	0.0007582
945.247	0.0008257
954.892	0.0008008
964.537	0.0006665
974.182	0.000604
983.827	0.0007092
993.472	0.0009284
1003.12	0.0010269
1012.76	0.0011425
1022.41	0.001394
1032.05	0.001824
1041.7	0.003114
1051.34	0.006824
1060.99	0.012824
1070.63	0.016444
1080.28	0.016214
1089.92	0.017034
1099.57	0.016204
1109.21	0.016524
1118.86	0.014394
1128.5	0.009954
1138.15	0.006504
1147.79	0.007124
1157.44	0.010224
1167.08	0.016794
1176.73	0.036674
1186.37	0.043324
1196.02	0.018764
1205.66	0.006594
1215.31	0.004354
1224.95	0.004344
1234.6	0.004644
1244.24	0.004484
1253.89	0.005134
1263.53	0.005194
1273.18	0.004374
1282.82	0.004344
1292.47	0.006594
1302.11	0.009374
1311.76	0.012464
1321.4	0.013394
1331.05	0.009344
1340.69	0.006954
1350.34	0.010324
1359.98	0.013134
1369.63	0.008704
1379.27	0.004414
1388.92	0.003234
1398.56	0.002714
1408.21	0.003574
1417.85	0.007274
1427.5	0.009554
1437.14	0.005424
1446.79	0.001754
1456.43	0.001974
1466.08	0.003154
1475.73	0.004254
1485.37	0.003434
1495.02	0.001844
1504.66	0.0011148
1514.31	0.000782
1523.95	0.0007272
1533.6	0.000783
1543.24	0.001364
1552.89	0.002744
1562.53	0.004984
1572.18	0.006324
1581.82	0.005964
1591.47	0.004184
1601.11	0.002664
1610.76	0.001934
1620.4	0.0011862
1630.05	0.0008786
1639.69	0.000738
1649.34	0.000785
1658.98	0.0008763
1668.63	0.0010369
1678.27	0.0009089
1687.92	0.0010446
1697.56	0.001764
1707.21	0.003254
1716.85	0.004784
1726.5	0.004424
1736.14	0.005094
1745.79	0.014014
1755.43	0.052674
1765.08	0.076214
1774.72	0.040104
1784.37	0.008004
1794.01	0.003794
1803.66	0.003974
1813.3	0.004794
1822.95	0.003334
1832.59	0.001584
1842.24	0.0008496
1851.88	0.0007471
1861.53	0.0007414
1871.17	0.0008016
1880.82	0.0009466
1890.46	0.0010488
1900.11	0.0009326
1909.75	0.0008735
1919.4	0.0009388
1929.04	0.0007951
1938.69	0.0007623
1948.33	0.0008343
1957.98	0.0006522
1967.62	0.0005247
1977.27	0.0004368
1986.91	0.0004996
1996.56	0.0005583
2006.2	0.0005398
2015.85	0.0004844
2025.49	0.00039549
2035.14	0.00037539
2044.78	0.00030451
2054.43	0.0004436
2064.07	0.00036983
2073.72	0.00036219
2083.36	0.00030878
2093.01	0.00032628
2102.65	0.00032416
2112.3	0.00033255
2121.94	0.0004332
2131.59	0.0005045
2141.23	0.0004528
2150.88	0.0004512
2160.52	0.0004026
2170.17	0.00038309
2179.81	0.0005023
2189.46	0.0004756
2199.1	0.0004894
2208.75	0.00037818
2218.39	0.00035259
2228.04	0.00030482
2237.68	0.00036875
2247.33	0.00039833
2256.97	0.00036517
2266.62	0.00040336
2276.26	0.00038147
2285.91	0.0003601
2295.55	0.00033824
2305.2	0.00033985
2314.84	0.00037055
2324.49	0.0003872
2334.13	0.00040354
2343.78	0.0004354
2353.42	0.0005014
2363.07	0.0005039
2372.72	0.0004333
2382.36	0.0004216
2392.01	0.00040899
2401.65	0.0004751
2411.3	0.0004345
2420.94	0.0004964
2430.59	0.0004912
2440.23	0.00040039
2449.88	0.00041139
2459.52	0.0004193
2469.17	0.00038897
2478.81	0.00032403
2488.46	0.00034801
2498.1	0.00035625
2507.75	0.00037086
2517.39	0.00036019
2527.04	0.00035907
2536.68	0.0004442
2546.33	0.00035101
2555.97	0.00036032
2565.62	0.00030611
2575.26	0.00036402
2584.91	0.00033388
2594.55	0.00038658
2604.2	0.0002459
2613.84	0.000322397
2623.49	0.00038901
2633.13	0.000192
2642.78	0.0002667
2652.42	0.0002623
2662.07	0.000211
2671.71	0.0002577
2681.36	0.0003262
2691	0.0002444
2700.65	0.0002662
2710.29	0.0002332
2719.94	0.0002928
2729.58	0.0002385
2739.23	0.0002727
2748.87	0.000266
2758.52	0.00034526
2768.16	0.0002915
2777.81	0.0003814
2787.45	0.00038389
2797.1	0.0002491
2806.74	0.0002751
2816.39	0.00031111
2826.03	0.00036625
2835.68	0.000313901
2845.32	0.0002444
2854.97	0.00038027
2864.61	0.0002596
2874.26	0.0002806
2883.9	0.0004287
2893.55	0.000316664
2903.19	0.0002959
2912.84	0.0002773
2922.48	0.0003646
2932.13	0.000245
2941.77	0.0003103
2951.42	0.0002916
2961.06	0.0002769
2970.71	0.000241
2980.35	0.000206
2990	0.00031029
2999.64	0.0002856
3009.29	0.000428
3018.93	0.0004263
3028.58	0.000578
3038.22	0.0005232
3047.87	0.0004872
3057.51	0.0006109
3067.16	0.0012344
3076.8	0.002304
3086.45	0.002084
3096.09	0.0010481
3105.74	0.0006886
3115.38	0.0002182
3125.03	0.00033809
3134.67	0.000296
3144.32	0.000176
3153.96	0.0002177
3163.61	0.0002375
3173.25	0.000132
3182.9	0.0002325
3192.54	0.0002706
3202.19	8.3e-05
3211.83	5.2e-05
3221.48	7.5e-05
3231.12	0.00013
3240.77	0.000184
3250.41	0.0002405
3260.06	0.00015
3269.7	0.000142
3279.35	0.000217
3289	8.8e-05
3298.64	0.0002702
3308.29	0.000316056
3317.93	0.0002493
3327.58	0.0002723
3337.22	0.0002795
3346.87	0.00035967
3356.51	0.00039064
3366.16	0.000174
3375.8	0.000108
3385.45	0.0002204
3395.09	0.000101
3404.74	0.00036549
3414.38	0.00030963
3424.03	0.0002839
3433.67	0.000321383
3443.32	0.0002888
3452.96	0.00031108
3462.61	0.00034188
3472.25	0.0004085
3481.9	0.00036537
3491.54	0.0006333
3501.19	0.0006738
3510.83	0.0009191
3520.48	0.0006206
3530.12	0.0005145
3539.77	0.0004522
3549.41	0.0007003
3559.06	0.001734
3568.7	0.007674
3578.35	0.024594
3587.99	0.022124
3597.64	0.004464
3607.28	0.0009838
3616.93	0.000544
3626.57	0.0004778
3636.22	0.000206
3645.86	0.0002555
3655.51	0.0002827
3665.15	0.00030923
3674.8	0.0002818
3684.44	0.0002644
3694.09	0.00036183
3703.73	0.0002274
3713.38	0.000181
3723.02	0.00037156
3732.67	0.0005031
3742.31	0.00035197
3751.96	0.00037272
3761.6	0.00032869
3771.25	0.0002265
3780.89	0.0002687
3790.54	0.0002226
3800.18	0.00039542
3809.83	0.0002691
3819.47	0.000181
3829.12	5e-06
3838.76	0.0002636
3848.41	0.00033339
3858.05	0.0002474
3867.7	0.00036734
3877.34	0.0003896
3886.99	0.00036758
3896.63	0.0004922
3906.28	0.000323924
3915.92	0.0002738
3925.57	5.6e-05
3935.21	0.0003033
3944.86	0.00037424
3954.5	0.0002365
3964.15	0.0002956
3973.79	0.000211
3983.44	0.000317898
3993.08	0.000149
