Infrared Spectrum: .alpha.,4-Dichloroacetophenone
Formula: C 8 H 6 Cl 2 O
CAS: 937-20-2
State: gas
Origin: EPA-IR VAPOR PHASE LIBRARY
1/CM	ABSORBANCE
549.9	0.01789
559.547	0.0178
569.193	0.01995
578.84	0.02188
588.486	0.01526
598.133	0.00924
607.779	0.00944
617.426	0.01345
627.072	0.01951
636.719	0.02217
646.365	0.03505
656.012	0.04043
665.658	0.0224
675.305	0.01424
684.951	0.01576
694.598	0.02013
704.245	0.02412
713.891	0.02715
723.538	0.0188
733.184	0.01541
742.831	0.02054
752.477	0.05021
762.124	0.0791
771.77	0.06409
781.417	0.06196
791.063	0.0429
800.71	0.04095
810.356	0.04362
820.003	0.04542
829.649	0.06095
839.296	0.08013
848.943	0.05764
858.589	0.02236
868.236	0.01008
877.882	0.00708
887.529	0.00555
897.175	0.00509
906.822	0.00583
916.468	0.00763
926.115	0.00761
935.761	0.00692
945.408	0.0073
955.054	0.00747
964.701	0.00859
974.347	0.01289
983.994	0.02753
993.64	0.04178
1003.29	0.06527
1012.93	0.12775
1022.58	0.04693
1032.23	0.03355
1041.87	0.01994
1051.52	0.01503
1061.17	0.01892
1070.81	0.02593
1080.46	0.06016
1090.11	0.19737
1099.75	0.19599
1109.4	0.06114
1119.05	0.02571
1128.69	0.01635
1138.34	0.02031
1147.99	0.01688
1157.63	0.01254
1167.28	0.01671
1176.92	0.03929
1186.57	0.03757
1196.22	0.06264
1205.86	0.07543
1215.51	0.0482
1225.16	0.04049
1234.8	0.04298
1244.45	0.07821
1254.1	0.11283
1263.74	0.16291
1273.39	0.21709
1283.04	0.14685
1292.68	0.07645
1302.33	0.0525
1311.98	0.04617
1321.62	0.02399
1331.27	0.01431
1340.92	0.01294
1350.56	0.01357
1360.21	0.01039
1369.86	0.00962
1379.5	0.01352
1389.15	0.02983
1398.79	0.04431
1408.44	0.03227
1418.09	0.03027
1427.73	0.04699
1437.38	0.05504
1447.03	0.024
1456.67	0.01288
1466.32	0.01206
1475.97	0.02336
1485.61	0.05778
1495.26	0.04318
1504.91	0.01172
1514.55	0.00758
1524.2	0.00726
1533.85	0.00802
1543.49	0.01098
1553.14	0.02059
1562.79	0.04697
1572.43	0.07781
1582.08	0.10717
1591.73	0.17963
1601.37	0.12585
1611.02	0.03726
1620.67	0.0179
1630.31	0.01273
1639.96	0.01105
1649.6	0.01309
1659.25	0.01908
1668.9	0.02601
1678.54	0.03899
1688.19	0.0908
1697.84	0.23218
1707.48	0.29555
1717.13	0.17289
1726.78	0.09764
1736.42	0.04983
1746.07	0.02374
1755.72	0.01377
1765.36	0.01095
1775.01	0.0099
1784.66	0.01006
1794.3	0.0082
1803.95	0.00578
1813.6	0.00483
1823.24	0.00451
1832.89	0.0046
1842.54	0.00492
1852.18	0.00504
1861.83	0.00474
1871.47	0.00468
1881.12	0.00545
1890.77	0.00675
1900.41	0.00694
1910.06	0.00621
1919.71	0.0057
1929.35	0.00532
1939	0.00475
1948.65	0.0037478
1958.29	0.00299058
1967.94	0.002696
1977.59	0.002559
1987.23	0.002346
1996.88	0.002298
2006.53	0.002408
2016.17	0.002576
2025.82	0.0028874
2035.47	0.0028266
2045.11	0.002657
2054.76	0.002574
2064.41	0.00247
2074.05	0.002202
2083.7	0.001932
2093.35	0.00182
2102.99	0.0018
2112.64	0.0017
2122.28	0.00161
2131.93	0.00163
2141.58	0.00159
2151.22	0.0016
2160.87	0.00174
2170.52	0.00176
2180.16	0.00176
2189.81	0.00174
2199.46	0.00169
2209.1	0.00169
2218.75	0.0017
2228.4	0.00172
2238.04	0.00171
2247.69	0.00185
2257.34	0.00188
2266.98	0.002319
2276.63	0.0028737
2286.28	0.0032378
2295.92	0.0032152
2305.57	0.002771
2315.22	0.002497
2324.86	0.002357
2334.51	0.002337
2344.16	0.002378
2353.8	0.002501
2363.45	0.002253
2373.09	0.00204
2382.74	0.002089
2392.39	0.002194
2402.03	0.002447
2411.68	0.00236
2421.33	0.002014
2430.97	0.00186
2440.62	0.00174
2450.27	0.00178
2459.91	0.00189
2469.56	0.0019
2479.21	0.00189
2488.85	0.0021
2498.5	0.002448
2508.15	0.002689
2517.79	0.00294359
2527.44	0.0033999
2537.09	0.0038983
2546.73	0.0043
2556.38	0.00426
2566.03	0.0037645
2575.67	0.0033974
2585.32	0.0028698
2594.96	0.002473
2604.61	0.00236
2614.26	0.00188
2623.9	0.00167
2633.55	0.00149
2643.2	0.00139
2652.84	0.00142
2662.49	0.00159
2672.14	0.00189
2681.78	0.002119
2691.43	0.00201
2701.08	0.0017
2710.72	0.0017
2720.37	0.00165
2730.02	0.00174
2739.66	0.00174
2749.31	0.00159
2758.96	0.00165
2768.6	0.00167
2778.25	0.00167
2787.9	0.00173
2797.54	0.00174
2807.19	0.0016
2816.84	0.00167
2826.48	0.00164
2836.13	0.001988
2845.77	0.002479
2855.42	0.002701
2865.07	0.002424
2874.71	0.002042
2884.36	0.00176
2894.01	0.00147
2903.65	0.00162
2913.3	0.002144
2922.95	0.00328
2932.59	0.00572
2942.24	0.01089
2951.89	0.01471
2961.53	0.01535
2971.18	0.01471
2980.83	0.00823
2990.47	0.0038278
3000.12	0.0028334
3009.77	0.0030189
3019.41	0.00457
3029.06	0.00673
3038.71	0.00581
3048.35	0.00515
3058	0.00525
3067.64	0.00661
3077.29	0.00676
3086.94	0.00967
3096.58	0.01084
3106.23	0.00603
3115.88	0.002251
3125.52	0.00163
3135.17	0.00158
3144.82	0.00102
3154.46	0.0006
3164.11	0.0005
3173.76	0.00039
3183.4	0.00035
3193.05	0.00025
3202.7	0.00012
3212.34	0.00035
3221.99	1e-05
3231.64	0.00021
3241.28	6e-05
3250.93	0.00019
3260.58	0.00043
3270.22	0.00044
3279.87	0.00029
3289.52	0.00055
3299.16	0.0007
3308.81	0.00059
3318.45	0.00064
3328.1	0.00054
3337.75	0.00086
3347.39	0.00105
3357.04	0.00128
3366.69	0.002235
3376.33	0.00398
3385.98	0.0052
3395.63	0.0049
3405.27	0.0032124
3414.92	0.002334
3424.57	0.002266
3434.21	0.002126
3443.86	0.00161
3453.51	0.00143
3463.15	0.00121
3472.8	0.00115
3482.45	0.00096
3492.09	0.00121
3501.74	0.00101
3511.39	0.0011
3521.03	0.00116
3530.68	0.00114
3540.33	0.00134
3549.97	0.00139
3559.62	0.00134
3569.26	0.00129
3578.91	0.00124
3588.56	0.00144
3598.2	0.00154
3607.85	0.00149
3617.5	0.00142
3627.14	0.00138
3636.79	0.0013
3646.44	0.00141
3656.08	0.00168
3665.73	0.0018
3675.38	0.00169
3685.02	0.00166
3694.67	0.00177
3704.32	0.00175
3713.96	0.001989
3723.61	0.002346
3733.26	0.002007
3742.9	0.00187
3752.55	0.001972
3762.2	0.00182
3771.84	0.0017
3781.49	0.00166
3791.13	0.001924
3800.78	0.001924
3810.43	0.001979
3820.07	0.00182
3829.72	0.00175
3839.37	0.00173
3849.01	0.002093
3858.66	0.002177
3868.31	0.002113
3877.95	0.00188
3887.6	0.00185
3897.25	0.00187
3906.89	0.0017
3916.54	0.001964
3926.19	0.00182
3935.83	0.00184
3945.48	0.00185
3955.13	0.00189
3964.77	0.00172
3974.42	0.00167
3984.07	0.00169
3993.71	0.001908
