Infrared Spectrum: 3-Hexamethyleneiminopropionitrile
Formula: C 9 H 16 N 2
CAS: 937-51-9
State: gas
Origin: EPA-IR VAPOR PHASE LIBRARY
1/CM	ABSORBANCE
549.9	0.00112
559.547	0.00134083
569.193	0.0015686
578.84	0.0018002
588.486	0.0018363
598.133	0.00136676
607.779	0.001166
617.426	0.000949
627.072	0.000807
636.719	0.000893
646.365	0.000651
656.012	0.000738
665.658	0.000886
675.305	0.001139
684.951	0.001186
694.598	0.0015164
704.245	0.0021234
713.891	0.00261
723.538	0.00266
733.184	0.00249
742.831	0.0023126
752.477	0.00235
762.124	0.0023284
771.77	0.0021607
781.417	0.002097
791.063	0.0020879
800.71	0.0021259
810.356	0.00242
820.003	0.00234
829.649	0.0020026
839.296	0.0019972
848.943	0.0019189
858.589	0.0021206
868.236	0.0026
877.882	0.00363
887.529	0.00475
897.175	0.00477
906.822	0.00469
916.468	0.00519
926.115	0.00588
935.761	0.0064
945.408	0.00693
955.054	0.00929
964.701	0.01065
974.347	0.00988
983.994	0.00878
993.64	0.0091
1003.29	0.01098
1012.93	0.01157
1022.58	0.00822
1032.23	0.00512
1041.87	0.00384
1051.52	0.00363
1061.17	0.00441
1070.81	0.00711
1080.46	0.01405
1090.11	0.0193
1099.75	0.01508
1109.4	0.0116
1119.05	0.01655
1128.69	0.02783
1138.34	0.03438
1147.99	0.02866
1157.63	0.02069
1167.28	0.01409
1176.92	0.00984
1186.57	0.00802
1196.22	0.00626
1205.86	0.00582
1215.51	0.00744
1225.16	0.0103
1234.8	0.01236
1244.45	0.01018
1254.1	0.00761
1263.74	0.00638
1273.39	0.00661
1283.04	0.00737
1292.68	0.00818
1302.33	0.00907
1311.98	0.01033
1321.62	0.01289
1331.27	0.01646
1340.92	0.02124
1350.56	0.0293
1360.21	0.03453
1369.86	0.02828
1379.5	0.01771
1389.15	0.01164
1398.79	0.00845
1408.44	0.00706
1418.09	0.00866
1427.73	0.0127
1437.38	0.01649
1447.03	0.02144
1456.67	0.02472
1466.32	0.02105
1475.97	0.01441
1485.61	0.00808
1495.26	0.00428
1504.91	0.00263
1514.55	0.0020784
1524.2	0.0016157
1533.85	0.0014319
1543.49	0.001193
1553.14	0.001118
1562.79	0.001114
1572.43	0.001097
1582.08	0.001095
1591.73	0.001088
1601.37	0.000982
1611.02	0.000962
1620.67	0.001041
1630.31	0.001128
1639.96	0.001129
1649.6	0.001038
1659.25	0.000988
1668.9	0.000965
1678.54	0.00092
1688.19	0.000912
1697.84	0.00083
1707.48	0.000861
1717.13	0.000819
1726.78	0.000798
1736.42	0.000859
1746.07	0.000771
1755.72	0.00082
1765.36	0.00081
1775.01	0.000829
1784.66	0.000857
1794.3	0.00094
1803.95	0.000957
1813.6	0.000932
1823.24	0.000957
1832.89	0.000945
1842.54	0.001021
1852.18	0.001088
1861.83	0.001098
1871.47	0.001088
1881.12	0.001029
1890.77	0.000989
1900.41	0.000976
1910.06	0.000985
1919.71	0.000933
1929.35	0.000988
1939	0.000909
1948.65	0.001011
1958.29	0.000983
1967.94	0.00095
1977.59	0.000935
1987.23	0.000932
1996.88	0.000953
2006.53	0.000901
2016.17	0.000922
2025.82	0.00095
2035.47	0.000996
2045.11	0.001023
2054.76	0.001019
2064.41	0.001086
2074.05	0.001078
2083.7	0.001047
2093.35	0.00108
2102.99	0.001065
2112.64	0.001151
2122.28	0.001163
2131.93	0.001113
2141.58	0.001085
2151.22	0.00106
2160.87	0.001139
2170.52	0.001227
2180.16	0.00117
2189.81	0.0012643
2199.46	0.00137004
2209.1	0.0013978
2218.75	0.0015315
2228.4	0.0018412
2238.04	0.0027
2247.69	0.00423
2257.34	0.0038
2266.98	0.0019965
2276.63	0.0015046
2286.28	0.00141244
2295.92	0.0014455
2305.57	0.0014472
2315.22	0.00140084
2324.86	0.0013546
2334.51	0.0014302
2344.16	0.00138899
2353.8	0.0014435
2363.45	0.00136626
2373.09	0.0014229
2382.74	0.00141785
2392.39	0.00133851
2402.03	0.0013161
2411.68	0.00133143
2421.33	0.0014307
2430.97	0.00140915
2440.62	0.0014411
2450.27	0.00142722
2459.91	0.0014413
2469.56	0.0014436
2479.21	0.0014454
2488.85	0.001473
2498.5	0.00139129
2508.15	0.0015463
2517.79	0.0016512
2527.44	0.0017893
2537.09	0.0018589
2546.73	0.0019595
2556.38	0.0020042
2566.03	0.0020968
2575.67	0.0022487
2585.32	0.00247
2594.96	0.00262
2604.61	0.00282
2614.26	0.00305
2623.9	0.00324
2633.55	0.00351
2643.2	0.00403
2652.84	0.00468
2662.49	0.00573
2672.14	0.00693
2681.78	0.00825
2691.43	0.00925
2701.08	0.00983
2710.72	0.01031
2720.37	0.01087
2730.02	0.01134
2739.66	0.0125
2749.31	0.01432
2758.96	0.017
2768.6	0.02032
2778.25	0.02352
2787.9	0.02688
2797.54	0.03266
2807.19	0.04066
2816.84	0.0472
2826.48	0.05008
2836.13	0.04902
2845.77	0.0475
2855.42	0.05347
2865.07	0.05978
2874.71	0.05183
2884.36	0.04306
2894.01	0.04433
2903.65	0.05748
2913.3	0.0874
2922.95	0.14227
2932.59	0.20394
2942.24	0.18475
2951.89	0.10702
2961.53	0.05898
2971.18	0.03552
2980.83	0.01985
2990.47	0.01069
3000.12	0.00648
3009.77	0.00451
3019.41	0.00349
3029.06	0.00296
3038.71	0.00243
3048.35	0.002226
3058	0.0021178
3067.64	0.0019511
3077.29	0.0015931
3086.94	0.0014426
3096.58	0.00136683
3106.23	0.001225
3115.88	0.00123
3125.52	0.0012417
3135.17	0.001081
3144.82	0.000929
3154.46	0.001154
3164.11	0.001028
3173.76	0.001043
3183.4	0.001183
3193.05	0.00102
3202.7	0.000884
3212.34	0.000763
3221.99	0.000862
3231.64	0.000966
3241.28	0.000743
3250.93	0.000714
3260.58	0.000844
3270.22	0.00079
3279.87	0.000631
3289.52	0.000452
3299.16	0.000622
3308.81	0.000621
3318.45	0.000503
3328.1	0.000488
3337.75	0.000729
3347.39	0.000457
3357.04	0.00022
3366.69	0.000416
3376.33	0.000409
3385.98	0.000391
3395.63	0.00015
3405.27	0.000448
3414.92	0.000421
3424.57	0.000512
3434.21	0.000435
3443.86	0.000442
3453.51	0.000446
3463.15	0.00026
3472.8	0.000391
3482.45	0.00027
3492.09	8e-05
3501.74	0.00026
3511.39	0.000359
3521.03	0.00025
3530.68	0.000444
3540.33	0.00026
3549.97	0.00031
3559.62	0.00033
3569.26	0.00028
3578.91	0.000395
3588.56	0.000377
3598.2	0.00026
3607.85	0.000392
3617.5	0.000503
3627.14	0.000503
3636.79	0.000561
3646.44	0.000525
3656.08	0.000476
3665.73	0.000557
3675.38	0.000629
3685.02	0.000677
3694.67	0.000499
3704.32	0.000691
3713.96	0.000673
3723.61	0.00057
3733.26	0.000776
3742.9	0.000654
3752.55	0.000687
3762.2	0.000616
3771.84	0.000612
3781.49	0.000682
3791.13	0.000763
3800.78	0.000749
3810.43	0.000943
3820.07	0.000797
3829.72	0.000836
3839.37	0.000793
3849.01	0.000992
3858.66	0.000846
3868.31	0.000904
3877.95	0.000963
3887.6	0.000871
3897.25	0.000922
3906.89	0.00096
3916.54	0.000935
3926.19	0.001017
3935.83	0.000956
3945.48	0.000986
3955.13	0.000983
3964.77	0.001047
3974.42	0.001029
3984.07	0.00102
3993.71	0.001063
