Infrared Spectrum: ANILINE, N-tert-BUTYL-,
Formula: C10 H15 N
CAS: 937-33-7
State: LIQUID (NEAT)
Class: COBLENTZ III
Instrument: BECKMAN IR-4 (HYBRID PRISM-GRATING)
Instrument parameters: NaCl PRISM
Sampling: TRANSMISSION
Path length: CAPILLARY
Resolution: 2
Origin: MONSANTO (J. FREEMAN)
1/CM	TRANSMITTANCE
4000	0.9014
3991	0.9017
3982	0.902
3973	0.9023
3964	0.9027
3955	0.903
3946	0.9033
3937	0.9036
3928	0.9038
3919	0.9045
3910	0.9055
3901	0.9066
3892	0.9078
3883	0.909
3874	0.9102
3865	0.9109
3856	0.9113
3847	0.9116
3838	0.912
3829	0.9123
3820	0.9125
3811	0.9123
3802	0.912
3793	0.9118
3784	0.9114
3775	0.9105
3766	0.9097
3757	0.9089
3748	0.908
3739	0.9071
3730	0.9064
3721	0.906
3712	0.9057
3703	0.9052
3694	0.9049
3685	0.9047
3676	0.9051
3667	0.9056
3658	0.9065
3649	0.9073
3640	0.9083
3631	0.9089
3622	0.909
3613	0.909
3604	0.9088
3595	0.9083
3586	0.9077
3577	0.9071
3568	0.9064
3559	0.9058
3550	0.9047
3541	0.9034
3532	0.9021
3523	0.9008
3514	0.8983
3505	0.8952
3496	0.8889
3487	0.8815
3478	0.8683
3469	0.8455
3460	0.7911
3451	0.7175
3442	0.6435
3433	0.6045
3424	0.622
3415	0.6468
3406	0.6718
3397	0.6968
3388	0.7221
3379	0.7565
3370	0.7819
3361	0.8008
3352	0.8148
3343	0.8267
3334	0.8398
3325	0.8505
3316	0.8591
3307	0.8664
3298	0.8732
3289	0.8796
3280	0.8842
3271	0.8873
3262	0.889
3253	0.8905
3244	0.8906
3235	0.8904
3226	0.8897
3217	0.8887
3208	0.8875
3199	0.8863
3190	0.8845
3181	0.8827
3172	0.8807
3163	0.8785
3154	0.8763
3145	0.8725
3136	0.7955
3127	0.6921
3118	0.6517
3109	0.6441
3100	0.6369
3091	0.6
3082	0.5544
3073	0.5165
3064	0.5099
3055	0.5035
3046	0.4445
3037	0.3525
3028	0.2599
3019	0.2041
3010	0.2095
3001	0.2434
2992	0.2798
2983	0.3166
2974	0.3414
2965	0.365
2956	0.3848
2947	0.4034
2938	0.426
2929	0.4637
2920	0.4834
2911	0.5037
2902	0.519
2893	0.5551
2884	0.6482
2875	0.7421
2866	0.795
2857	0.8178
2848	0.832
2839	0.844
2830	0.8586
2821	0.8777
2812	0.8903
2803	0.9007
2794	0.9065
2785	0.9121
2776	0.9143
2767	0.9144
2758	0.9145
2749	0.9145
2740	0.915
2731	0.9171
2722	0.9212
2713	0.9249
2704	0.9271
2695	0.9285
2686	0.9294
2677	0.9303
2668	0.9302
2659	0.9293
2650	0.928
2641	0.9257
2632	0.9224
2623	0.9153
2614	0.9027
2605	0.8946
2596	0.8916
2587	0.8925
2578	0.9008
2569	0.9115
2560	0.9208
2551	0.9268
2542	0.9313
2533	0.935
2524	0.938
2515	0.9404
2506	0.9421
2497	0.9424
2488	0.9414
2479	0.9404
2470	0.9403
2461	0.9404
2452	0.9407
2443	0.9412
2434	0.9425
2425	0.9441
2416	0.9467
2407	0.949
2398	0.9502
2389	0.9475
2380	0.9459
2371	0.9447
2362	0.9442
2353	0.9454
2344	0.9468
2335	0.949
2326	0.9502
2317	0.9502
2308	0.9492
2299	0.9483
2290	0.9489
2281	0.9521
2272	0.9568
2263	0.9611
2254	0.9628
2245	0.9632
2236	0.9621
2227	0.9611
2218	0.9599
2209	0.958
2200	0.956
2191	0.9537
2182	0.9517
2173	0.9498
2164	0.949
2155	0.9491
2146	0.9498
2137	0.9528
2128	0.9542
2119	0.9554
2110	0.9557
2101	0.956
2092	0.956
2083	0.9559
2074	0.9557
2065	0.9552
2056	0.9545
2047	0.9538
2038	0.9531
2029	0.9524
2020	0.9516
2011	0.9511
2002	0.9511
1993	0.9512
1984	0.9505
1975	0.9451
1966	0.935
1957	0.9141
1948	0.8871
1939	0.8605
1930	0.8578
1921	0.87
1912	0.8897
1903	0.9123
1894	0.9291
1885	0.9358
1876	0.9349
1867	0.9278
1858	0.9113
1849	0.8989
1840	0.8885
1831	0.8928
1822	0.9124
1813	0.9265
1804	0.9311
1795	0.9278
1786	0.9231
1777	0.9148
1768	0.9238
1759	0.932
1750	0.9368
1741	0.9338
1732	0.9268
1723	0.9162
1714	0.9028
1705	0.8931
1696	0.8875
1687	0.885
1678	0.8871
1669	0.8784
1660	0.8117
1651	0.7581
1642	0.6408
1633	0.465
1624	0.2872
1615	0.1161
1606	0.2156
1597	0.3641
1588	0.5142
1579	0.6661
1570	0.7308
1561	0.7318
1552	0.665
1543	0.5926
1534	0.2862
1525	0.1668
1516	0.1292
1507	0.1661
1498	0.2559
1489	0.3502
1480	0.4172
1471	0.4195
1462	0.5825
1453	0.66
1444	0.6271
1435	0.4853
1426	0.6209
1417	0.7457
1408	0.5404
1399	0.3334
1390	0.5917
1381	0.4599
1372	0.3398
1363	0.566
1354	0.5488
1345	0.4199
1336	0.2787
1327	0.2118
1318	0.34
1309	0.491
1300	0.6006
1291	0.5425
1282	0.4544
1273	0.311
1264	0.2852
1255	0.3792
1246	0.4037
1237	0.2627
1228	0.1283
1219	0.1929
1210	0.2789
1201	0.4108
1192	0.4831
1183	0.4021
1174	0.6327
1165	0.7554
1156	0.6671
1147	0.8701
1138	0.9175
1129	0.9385
1120	0.9389
1111	0.931
1102	0.9332
1093	0.9167
1084	0.7047
1075	0.8157
1066	0.9191
1057	0.929
1048	0.9183
1039	0.779
1030	0.5353
1021	0.7983
1012	0.9118
1003	0.8473
994	0.591
985	0.8511
976	0.8618
967	0.8125
958	0.7497
949	0.7791
940	0.8484
931	0.8618
922	0.8103
913	0.8535
904	0.8733
895	0.8548
886	0.8466
877	0.7518
868	0.6412
859	0.8028
850	0.8353
841	0.8191
832	0.7792
823	0.7768
814	0.774
805	0.7805
796	0.7435
787	0.731
778	0.6515
769	0.4345
760	0.3037
751	0.1607
742	0.1832
733	0.486
724	0.6771
715	0.6949
706	0.5524
697	0.2161
688	0.3553
679	0.6432
670	0.6904
661	0.7165
652	0.7254
643	0.7206
634	0.7141
