Infrared Spectrum: 4-Chlorophenyl chlorothionoformate
Formula: C 7 H 4 Cl 2 O S
CAS: 937-64-4
State: gas
Origin: EPA-IR VAPOR PHASE LIBRARY
1/CM	ABSORBANCE
549.9	0.0032602
559.547	0.0030147
569.193	0.00311113
578.84	0.0034288
588.486	0.00411
598.133	0.00459
607.779	0.00434
617.426	0.0035592
627.072	0.0031807
636.719	0.0035013
646.365	0.00509
656.012	0.00766
665.658	0.00683
675.305	0.00561
684.951	0.0036205
694.598	0.00307111
704.245	0.0033566
713.891	0.0053
723.538	0.00436
733.184	0.002723
742.831	0.002707
752.477	0.00275
762.124	0.002872
771.77	0.0031929
781.417	0.0038689
791.063	0.00721
800.71	0.01262
810.356	0.01143
820.003	0.01554
829.649	0.02538
839.296	0.02156
848.943	0.00889
858.589	0.0049
868.236	0.00426
877.882	0.0038797
887.529	0.0034123
897.175	0.0033281
906.822	0.0031938
916.468	0.0035114
926.115	0.00439
935.761	0.00561
945.408	0.00788
955.054	0.01009
964.701	0.01181
974.347	0.01615
983.994	0.02636
993.64	0.05254
1003.29	0.10866
1012.93	0.16555
1022.58	0.13357
1032.23	0.07924
1041.87	0.02004
1051.52	0.00981
1061.17	0.00882
1070.81	0.01013
1080.46	0.02255
1090.11	0.04415
1099.75	0.02873
1109.4	0.0233
1119.05	0.016
1128.69	0.01008
1138.34	0.01055
1147.99	0.01765
1157.63	0.04763
1167.28	0.03186
1176.92	0.03998
1186.57	0.08179
1196.22	0.0633
1205.86	0.03867
1215.51	0.06255
1225.16	0.10897
1234.8	0.19025
1244.45	0.21128
1254.1	0.13539
1263.74	0.06101
1273.39	0.02883
1283.04	0.01917
1292.68	0.01625
1302.33	0.01275
1311.98	0.00916
1321.62	0.00678
1331.27	0.00556
1340.92	0.00456
1350.56	0.0038029
1360.21	0.003585
1369.86	0.0039096
1379.5	0.00412
1389.15	0.00459
1398.79	0.00498
1408.44	0.00451
1418.09	0.00433
1427.73	0.00678
1437.38	0.00573
1447.03	0.00416
1456.67	0.00545
1466.32	0.00993
1475.97	0.04233
1485.61	0.10243
1495.26	0.03613
1504.91	0.01043
1514.55	0.00648
1524.2	0.00483
1533.85	0.0039849
1543.49	0.0034286
1553.14	0.00306524
1562.79	0.002852
1572.43	0.002946
1582.08	0.0034794
1591.73	0.0038422
1601.37	0.0034247
1611.02	0.0032515
1620.67	0.0033546
1630.31	0.0039755
1639.96	0.00422
1649.6	0.0035796
1659.25	0.0032304
1668.9	0.0031534
1678.54	0.00308795
1688.19	0.002892
1697.84	0.002687
1707.48	0.002523
1717.13	0.002678
1726.78	0.002894
1736.42	0.00312605
1746.07	0.0038552
1755.72	0.0034954
1765.36	0.002637
1775.01	0.002468
1784.66	0.002407
1794.3	0.002456
1803.95	0.002549
1813.6	0.002744
1823.24	0.002711
1832.89	0.002708
1842.54	0.002792
1852.18	0.002868
1861.83	0.0033214
1871.47	0.00447
1881.12	0.00484
1890.77	0.00407
1900.41	0.003356
1910.06	0.0029747
1919.71	0.002611
1929.35	0.002488
1939	0.002552
1948.65	0.002883
1958.29	0.0030141
1967.94	0.002912
1977.59	0.002773
1987.23	0.002833
1996.88	0.002792
2006.53	0.00263
2016.17	0.00284
2025.82	0.0031696
2035.47	0.0036162
2045.11	0.0039566
2054.76	0.003624
2064.41	0.0037791
2074.05	0.00425
2083.7	0.002885
2093.35	0.002074
2102.99	0.00198
2112.64	0.00195
2122.28	0.00192
2131.93	0.00192
2141.58	0.00189
2151.22	0.00192
2160.87	0.00198
2170.52	0.002108
2180.16	0.002175
2189.81	0.002284
2199.46	0.002403
2209.1	0.002643
2218.75	0.00304839
2228.4	0.0035025
2238.04	0.0039652
2247.69	0.00443
2257.34	0.00434
2266.98	0.0036999
2276.63	0.0030303
2286.28	0.002549
2295.92	0.002354
2305.57	0.002306
2315.22	0.002346
2324.86	0.002248
2334.51	0.002198
2344.16	0.002359
2353.8	0.002182
2363.45	0.002163
2373.09	0.002243
2382.74	0.002125
2392.39	0.00202
2402.03	0.00197
2411.68	0.00195
2421.33	0.00193
2430.97	0.00192
2440.62	0.002088
2450.27	0.002203
2459.91	0.002455
2469.56	0.002551
2479.21	0.002177
2488.85	0.00196
2498.5	0.00182
2508.15	0.00167
2517.79	0.0016
2527.44	0.00155
2537.09	0.00148
2546.73	0.00157
2556.38	0.00153
2566.03	0.00156
2575.67	0.00145
2585.32	0.00138
2594.96	0.00141
2604.61	0.00136
2614.26	0.00128
2623.9	0.00129
2633.55	0.00125
2643.2	0.00129
2652.84	0.00116
2662.49	0.00122
2672.14	0.00126
2681.78	0.00121
2691.43	0.00122
2701.08	0.00112
2710.72	0.00106
2720.37	0.00106
2730.02	0.00101
2739.66	0.00098
2749.31	0.00095
2758.96	0.00098
2768.6	0.00086
2778.25	0.00087
2787.9	0.00087
2797.54	0.00082
2807.19	0.0008
2816.84	0.00069
2826.48	0.00082
2836.13	0.00092
2845.77	0.00086
2855.42	0.00077
2865.07	0.00063
2874.71	0.00046
2884.36	0.00044
2894.01	0.00055
2903.65	0.00036
2913.3	0.00026
2922.95	0.0002
2932.59	0.0002
2942.24	0.00017
2951.89	0.00027
2961.53	0
2971.18	3e-05
2980.83	4e-05
2990.47	0.00029
3000.12	0.00033
3009.77	0.00013
3019.41	0.00023
3029.06	0.00055
3038.71	0.00072
3048.35	0.00079
3058	0.00059
3067.64	0.00061
3077.29	0.00072
3086.94	0.00106
3096.58	0.0013
3106.23	0.00079
3115.88	0.00049
3125.52	0.00034
3135.17	0.0003
3144.82	0.00014
3154.46	0.00013
3164.11	0.0002
3173.76	0.0002
3183.4	0.00013
3193.05	0.00033
3202.7	0
3212.34	0.00038
3221.99	0.00026
3231.64	0.00028
3241.28	0.00029
3250.93	0.00061
3260.58	0.00034
3270.22	0.00039
3279.87	0.00028
3289.52	0.00043
3299.16	0.00039
3308.81	0.00058
3318.45	0.00055
3328.1	0.00049
3337.75	0.00057
3347.39	0.00064
3357.04	0.00067
3366.69	0.00052
3376.33	0.00063
3385.98	0.00076
3395.63	0.00083
3405.27	0.00072
3414.92	0.00097
3424.57	0.00095
3434.21	0.00089
3443.86	0.0011
3453.51	0.00102
3463.15	0.0011
3472.8	0.00111
3482.45	0.00092
3492.09	0.00118
3501.74	0.00114
3511.39	0.00107
3521.03	0.00119
3530.68	0.00143
3540.33	0.00132
3549.97	0.00141
3559.62	0.00119
3569.26	0.0013
3578.91	0.00134
3588.56	0.00139
3598.2	0.00142
3607.85	0.00144
3617.5	0.0016
3627.14	0.00157
3636.79	0.00156
3646.44	0.00158
3656.08	0.00166
3665.73	0.0017
3675.38	0.00161
3685.02	0.00152
3694.67	0.00154
3704.32	0.00132
3713.96	0.00155
3723.61	0.00168
3733.26	0.00166
3742.9	0.00157
3752.55	0.00138
3762.2	0.00156
3771.84	0.00156
3781.49	0.00149
3791.13	0.00155
3800.78	0.00153
3810.43	0.00152
3820.07	0.00149
3829.72	0.00146
3839.37	0.00149
3849.01	0.0016
3858.66	0.0016
3868.31	0.00168
3877.95	0.00145
3887.6	0.00167
3897.25	0.00158
3906.89	0.00151
3916.54	0.00152
3926.19	0.00154
3935.83	0.00151
3945.48	0.00143
3955.13	0.00146
3964.77	0.00142
3974.42	0.0014
3984.07	0.00148
3993.71	0.00139
