Infrared Spectrum: 3-(Trifluoromethyl)thiophenol
Formula: C 7 H 5 F 3 S
CAS: 937-00-8
State: gas
Origin: EPA-IR VAPOR PHASE LIBRARY
1/CM	ABSORBANCE
549.8	0.001366
559.445	0.002146
569.09	0.003166
578.734	0.004286
588.379	0.006136
598.024	0.006036
607.669	0.004836
617.313	0.002956
626.958	0.001796
636.603	0.001626
646.248	0.001746
655.893	0.0011553
665.537	0.0006423
675.182	0.00046485
684.827	0.0012526
694.472	0.004826
704.116	0.009106
713.761	0.004746
723.406	0.004316
733.051	0.002846
742.695	0.002036
752.34	0.0013065
761.985	0.002256
771.63	0.006366
781.275	0.009026
790.919	0.009176
800.564	0.014336
810.209	0.021396
819.854	0.029296
829.498	0.032476
839.143	0.025016
848.788	0.014706
858.433	0.006996
868.078	0.003526
877.722	0.002096
887.367	0.002206
897.012	0.002726
906.657	0.003906
916.301	0.004286
925.946	0.004146
935.591	0.003796
945.236	0.003536
954.88	0.002816
964.525	0.002026
974.17	0.002106
983.815	0.002756
993.46	0.003616
1003.1	0.008026
1012.75	0.046996
1022.39	0.040726
1032.04	0.006466
1041.68	0.006386
1051.33	0.016896
1060.97	0.085726
1070.62	0.110036
1080.26	0.032576
1089.91	0.031686
1099.55	0.101556
1109.2	0.121296
1118.84	0.070946
1128.49	0.103266
1138.13	0.175456
1147.78	0.251126
1157.42	0.224996
1167.07	0.208446
1176.71	0.152946
1186.36	0.085366
1196	0.038916
1205.64	0.019096
1215.29	0.015656
1224.93	0.014856
1234.58	0.009056
1244.22	0.006566
1253.87	0.008106
1263.51	0.013546
1273.16	0.021356
1282.8	0.021306
1292.45	0.022876
1302.09	0.040086
1311.74	0.142896
1321.38	0.400076
1331.03	0.328156
1340.67	0.082006
1350.32	0.027426
1359.96	0.013266
1369.61	0.009886
1379.25	0.010546
1388.9	0.014056
1398.54	0.018656
1408.18	0.018146
1417.83	0.012876
1427.47	0.006586
1437.12	0.003936
1446.76	0.002506
1456.41	0.001856
1466.05	0.001846
1475.7	0.002486
1485.34	0.003826
1494.99	0.007986
1504.63	0.006896
1514.28	0.002556
1523.92	0.001956
1533.57	0.002036
1543.21	0.002676
1552.86	0.004206
1562.5	0.007216
1572.15	0.007446
1581.79	0.006606
1591.44	0.010956
1601.08	0.030406
1610.73	0.057656
1620.37	0.029226
1630.01	0.005546
1639.66	0.004316
1649.3	0.003766
1658.95	0.003186
1668.59	0.002536
1678.24	0.001866
1687.88	0.001416
1697.53	0.0011117
1707.17	0.000934
1716.82	0.0008477
1726.46	0.0011429
1736.11	0.001486
1745.75	0.001696
1755.4	0.002016
1765.04	0.002506
1774.69	0.002936
1784.33	0.002936
1793.98	0.002036
1803.62	0.0013293
1813.27	0.001476
1822.91	0.001636
1832.55	0.001215
1842.2	0.0009108
1851.84	0.0008578
1861.49	0.0009042
1871.13	0.0011858
1880.78	0.001956
1890.42	0.002856
1900.07	0.003576
1909.71	0.003626
1919.36	0.002986
1929	0.001856
1938.65	0.0013207
1948.29	0.0011419
1957.94	0.0009708
1967.58	0.0008388
1977.23	0.0007722
1986.87	0.0006952
1996.52	0.0007104
2006.16	0.00055
2015.81	0.0004911
2025.45	0.0005379
2035.1	0.0005572
2044.74	0.0005021
2054.38	0.0005489
2064.03	0.0005659
2073.67	0.0005785
2083.32	0.0007504
2092.96	0.0013031
2102.61	0.001716
2112.25	0.00129
2121.9	0.0008671
2131.54	0.0006715
2141.19	0.000594
2150.83	0.0004947
2160.48	0.0005693
2170.12	0.000629
2179.77	0.0006881
2189.41	0.0008316
2199.06	0.0009391
2208.7	0.0011238
2218.35	0.0010692
2227.99	0.0011188
2237.64	0.0011013
2247.28	0.0010452
2256.92	0.0011402
2266.57	0.001476
2276.21	0.001736
2285.86	0.001596
2295.5	0.001566
2305.15	0.001506
2314.79	0.001516
2324.44	0.0013138
2334.08	0.0011261
2343.73	0.001158
2353.37	0.0010434
2363.02	0.0010042
2372.66	0.0008619
2382.31	0.0009314
2391.95	0.0010146
2401.6	0.0008938
2411.24	0.0006827
2420.89	0.0006269
2430.53	0.0005776
2440.18	0.0006608
2449.82	0.0006991
2459.47	0.0007544
2469.11	0.0008021
2478.75	0.0008464
2488.4	0.0007456
2498.04	0.0006898
2507.69	0.0007214
2517.33	0.000721
2526.98	0.0006129
2536.62	0.0008817
2546.27	0.0010548
2555.91	0.0011229
2565.56	0.0009009
2575.2	0.0008602
2584.85	0.0008839
2594.49	0.0009945
2604.14	0.0009137
2613.78	0.0008033
2623.43	0.0008535
2633.07	0.00107
2642.72	0.0011865
2652.36	0.0011147
2662.01	0.0006178
2671.65	0.0004852
2681.29	0.0003017
2690.94	0.000339
2700.58	0.00040064
2710.23	0.00038499
2719.87	0.00037759
2729.52	0.00043957
2739.16	0.0003417
2748.81	0.0005128
2758.45	0.00035758
2768.1	0.0003547
2777.74	0.0005007
2787.39	0.00041134
2797.03	0.00046231
2806.68	0.0005869
2816.32	0.0005413
2825.97	0.00045275
2835.61	0.00038142
2845.26	0.00035729
2854.9	0.00043991
2864.55	0.0003142
2874.19	0.0005513
2883.84	0.0005107
2893.48	0.0004863
2903.12	0.00044039
2912.77	0.000773
2922.41	0.0012564
2932.06	0.001646
2941.7	0.0010792
2951.35	0.0005862
2960.99	0.0005041
2970.64	0.0003148
2980.28	0.0005376
2989.93	0.0007806
2999.57	0.0006443
3009.22	0.0008296
3018.86	0.0009858
3028.51	0.0013168
3038.15	0.002526
3047.8	0.003586
3057.44	0.003356
3067.09	0.002626
3076.73	0.002616
3086.38	0.003456
3096.02	0.003656
3105.67	0.003096
3115.31	0.002046
3124.95	0.001197
3134.6	0.000723
3144.24	0.0006661
3153.89	0.00042248
3163.53	0.000432
3173.18	0.0003341
3182.82	0.0003254
3192.47	0.00036674
3202.11	0.0004955
3211.76	0.0006463
3221.4	0.0004933
3231.05	0.00041195
3240.69	0.0004541
3250.34	0.0002818
3259.98	0.00035618
3269.63	0.000217
3279.27	0.000172
3288.92	0.0003362
3298.56	0.00043538
3308.21	0.0002
3317.85	9.3e-05
3327.49	0.00041141
3337.14	0.00043956
3346.78	0.00042218
3356.43	0.00041286
3366.07	0.000375197
3375.72	0.00046591
3385.36	0.0003309
3395.01	0.000176
3404.65	0.00036057
3414.3	0.000156
3423.94	0.0003499
3433.59	0.000262
3443.23	0.00019
3452.88	0.000257
3462.52	0.0006201
3472.17	0.0003466
3481.81	0.00041026
3491.46	0.0005063
3501.1	0.00046316
3510.75	0.0006315
3520.39	0.00038164
3530.04	0.00041852
3539.68	0.0003432
3549.32	0.0005467
3558.97	0.0002788
3568.61	0.000265
3578.26	0.0003465
3587.9	0.000192
3597.55	0.0002965
3607.19	0.000234
3616.84	4e-05
3626.48	0.00042371
3636.13	0.000144
3645.77	0.000198
3655.42	0.000370892
3665.06	0.0003185
3674.71	0.000221
3684.35	0.000174
3694	0.0003516
3703.64	0.0004864
3713.29	0.0005457
3722.93	0.0005349
3732.58	0.0003095
3742.22	0.000172
3751.86	0.00045505
3761.51	0.00035799
3771.15	0.0003284
3780.8	0.0003395
3790.44	0.000242
3800.09	0.0003397
3809.73	0.000176
3819.38	0.0003423
3829.02	0.00036221
3838.67	0.00026
3848.31	0.00045264
3857.96	0.000251
3867.6	0.0003514
3877.25	0.000244
3886.89	0.0002785
3896.54	0.0005042
3906.18	0.0003498
3915.83	0.00039296
3925.47	0.000259
3935.12	0.000203
3944.76	0.0002998
3954.41	0.000232
3964.05	0.000199
3973.69	0.000293
3983.34	0.000115
3992.98	0.00040713
