Infrared Spectrum: O-4-Methylphenyl chlorothioformate
Formula: C 8 H 7 Cl O S
CAS: 937-63-3
State: gas
Origin: EPA-IR VAPOR PHASE LIBRARY
1/CM	ABSORBANCE
549.8	0.003165
559.445	0.002195
569.09	0.002355
578.734	0.002705
588.379	0.003585
598.024	0.004505
607.669	0.004485
617.313	0.003105
626.958	0.002265
636.603	0.002375
646.248	0.003835
655.893	0.008795
665.537	0.010115
675.182	0.006475
684.827	0.003965
694.472	0.003215
704.116	0.005415
713.761	0.008475
723.406	0.005295
733.051	0.010675
742.695	0.007715
752.34	0.002935
761.985	0.002515
771.63	0.002775
781.275	0.002975
790.919	0.003975
800.564	0.007905
810.209	0.021615
819.854	0.035375
829.498	0.025395
839.143	0.010135
848.788	0.005645
858.433	0.004185
868.078	0.003085
877.722	0.002875
887.367	0.003375
897.012	0.003845
906.657	0.003635
916.301	0.003445
925.946	0.003585
935.591	0.004725
945.236	0.006525
954.88	0.008725
964.525	0.013725
974.17	0.022035
983.815	0.036735
993.46	0.077905
1003.1	0.163655
1012.75	0.267895
1022.39	0.236745
1032.04	0.110015
1041.68	0.040535
1051.33	0.018805
1060.97	0.016815
1070.62	0.015835
1080.26	0.012215
1089.91	0.010855
1099.55	0.012595
1109.2	0.015065
1118.84	0.009675
1128.49	0.008515
1138.13	0.012255
1147.78	0.035365
1157.42	0.109515
1167.07	0.075075
1176.71	0.057865
1186.36	0.144095
1196	0.121865
1205.64	0.062545
1215.29	0.078285
1224.93	0.125945
1234.58	0.216245
1244.22	0.349835
1253.87	0.361875
1263.51	0.210065
1273.16	0.088895
1282.8	0.043895
1292.45	0.025895
1302.09	0.021195
1311.74	0.017855
1321.38	0.013765
1331.03	0.010375
1340.67	0.007495
1350.32	0.005515
1359.96	0.004735
1369.61	0.004485
1379.25	0.004945
1388.9	0.005635
1398.54	0.005005
1408.18	0.006295
1417.83	0.007235
1427.47	0.006175
1437.12	0.005425
1446.76	0.004835
1456.41	0.004885
1466.05	0.005675
1475.7	0.006835
1485.34	0.013575
1494.99	0.052055
1504.63	0.114685
1514.28	0.048795
1523.92	0.010155
1533.57	0.005955
1543.21	0.003975
1552.86	0.003345
1562.5	0.003145
1572.15	0.002975
1581.79	0.003475
1591.44	0.005245
1601.08	0.006895
1610.73	0.005685
1620.37	0.004255
1630.01	0.004475
1639.66	0.003915
1649.3	0.002485
1658.95	0.001985
1668.59	0.002025
1678.24	0.001915
1687.88	0.001695
1697.53	0.001405
1707.17	0.001185
1716.82	0.001225
1726.46	0.001515
1736.11	0.001945
1745.75	0.002475
1755.4	0.002685
1765.04	0.002705
1774.69	0.001405
1784.33	0.0008448
1793.98	0.0007322
1803.62	0.0007698
1813.27	0.0008919
1822.91	0.0010573
1832.55	0.001031
1842.2	0.001205
1851.84	0.001495
1861.49	0.002135
1871.13	0.003935
1880.78	0.005095
1890.42	0.004335
1900.07	0.003365
1909.71	0.002715
1919.36	0.002465
1929	0.002015
1938.65	0.001515
1948.29	0.001435
1957.94	0.001615
1967.58	0.001915
1977.23	0.002275
1986.87	0.002525
1996.52	0.002175
2006.16	0.001715
2015.81	0.001355
2025.45	0.001315
2035.1	0.0009997
2044.74	0.0008775
2054.38	0.0008346
2064.03	0.0009592
2073.67	0.0011137
2083.32	0.0009612
2092.96	0.0007215
2102.61	0.0006293
2112.25	0.0005784
2121.9	0.0005767
2131.54	0.0004895
2141.19	0.0003901
2150.83	0.0004514
2160.48	0.000503
2170.12	0.0006769
2179.77	0.0007925
2189.41	0.0008851
2199.06	0.001195
2208.7	0.001595
2218.35	0.002155
2227.99	0.002815
2237.64	0.003595
2247.28	0.004355
2256.92	0.004955
2266.57	0.004545
2276.21	0.003385
2285.86	0.002215
2295.5	0.001585
2305.15	0.001475
2314.79	0.001545
2324.44	0.001435
2334.08	0.001355
2343.73	0.001445
2353.37	0.0010977
2363.02	0.0009241
2372.66	0.0007505
2382.31	0.0007576
2391.95	0.0007876
2401.6	0.0008642
2411.24	0.0009633
2420.89	0.0009698
2430.53	0.001082
2440.18	0.0010259
2449.82	0.001275
2459.47	0.001565
2469.11	0.001885
2478.75	0.002155
2488.4	0.002025
2498.04	0.001535
2507.69	0.0011039
2517.33	0.0009251
2526.98	0.0007237
2536.62	0.0006308
2546.27	0.000575
2555.91	0.0004417
2565.56	0.000544
2575.2	0.0006626
2584.85	0.00067
2594.49	0.0005862
2604.14	0.0005488
2613.78	0.000281
2623.43	0.0003103
2633.07	0.000343
2642.72	0.00017867
2652.36	0.0002462
2662.01	0.0003196
2671.65	0.0003141
2681.29	0.0002562
2690.94	0.0003249
2700.58	0.0003334
2710.23	0.0004852
2719.87	0.0003763
2729.52	0.0004674
2739.16	0.0006903
2748.81	0.001195
2758.45	0.0006672
2768.1	0.0005671
2777.74	0.0004267
2787.39	0.0004713
2797.03	0.0005743
2806.68	0.0007172
2816.32	0.0007812
2825.97	0.0009475
2835.61	0.001235
2845.26	0.001945
2854.9	0.003135
2864.55	0.005215
2874.19	0.008295
2883.84	0.008895
2893.48	0.007425
2903.12	0.006735
2912.77	0.007755
2922.41	0.011255
2932.06	0.017555
2941.7	0.016965
2951.35	0.009205
2960.99	0.005745
2970.64	0.005015
2980.28	0.004875
2989.93	0.006435
2999.57	0.007995
3009.22	0.008485
3018.86	0.008905
3028.51	0.011745
3038.15	0.018875
3047.8	0.017045
3057.44	0.010385
3067.09	0.006915
3076.73	0.005065
3086.38	0.003975
3096.02	0.003485
3105.67	0.003545
3115.31	0.003255
3124.95	0.002265
3134.6	0.0010956
3144.24	0.0006866
3153.89	0.0004327
3163.53	0.0005056
3173.18	0.0004971
3182.82	0.0004225
3192.47	0.000522
3202.11	0.00020525
3211.76	0.00022402
3221.4	0.00023883
3231.05	0.0003625
3240.69	0.00018724
3250.34	0.0002797
3259.98	0.00022221
3269.63	0.0003374
3279.27	0.00016269
3288.92	0.00023879
3298.56	0.0002955
3308.21	0.0004094
3317.85	0.0003489
3327.49	0.00018364
3337.14	9.78e-05
3346.78	0.0002813
3356.43	0
3366.07	0.0004274
3375.72	0.0002467
3385.36	0.0003251
3395.01	0.0003073
3404.65	0.0001268
3414.3	0.0001197
3423.94	0.0002793
3433.59	0.0001314
3443.23	0.0002337
3452.88	0.00017531
3462.52	0.0003534
3472.17	0.0003776
3481.81	0.0003797
3491.46	0.0002908
3501.1	0.0002384
3510.75	0.0001148
3520.39	0.00024166
3530.04	5.96e-05
3539.68	0.00019335
3549.32	0.00020634
3558.97	0.0002497
3568.61	0.00016037
3578.26	0.00022006
3587.9	0.00021177
3597.55	0.0001151
3607.19	0.0003341
3616.84	0.0005124
3626.48	0.00017588
3636.13	0.0003789
3645.77	0.0003641
3655.42	0.0003619
3665.06	0.0004136
3674.71	0.0002861
3684.35	0.0004622
3694	0.0005224
3703.64	0.00020119
3713.29	0.00022586
3722.93	0.0003394
3732.58	0.0003213
3742.22	0.0004028
3751.86	0.000317
3761.51	0.0004063
3771.15	0.0005325
3780.8	0.0002997
3790.44	0.0003465
3800.09	0.0003209
3809.73	0.000287
3819.38	0.0004303
3829.02	0.000177
3838.67	0.0003286
3848.31	0.0003072
3857.96	0.0002958
3867.6	0.0005018
3877.25	0.0005362
3886.89	0.00022933
3896.54	0.0003797
3906.18	0.000534
3915.83	0.0004547
3925.47	0.0004458
3935.12	0.0004299
3944.76	0.0002814
3954.41	0.0003465
3964.05	0.0004164
3973.69	0.00022507
3983.34	0.0002969
3992.98	0.0001012
