Infrared Spectrum: O-NITRO CARBANILIC ACID, PHENETHYL ESTER
Formula: C15 H14 N2 O4
CAS: 93733-82-5
Class: COBLENTZ
Instrument: Not specified, most likely a grating spectrometer.
Sampling: TRANSMISSION
Path length: CAPILLARY
Resolution: 4
Origin: CITRUS EXPERIMENT STATION, UNIVERSITY OF FLORIDA (G. EDWARDS)
MICROMETERS	TRANSMITTANCE
2.046	0.944
2.07911	0.944
2.11223	0.944
2.14534	0.942
2.17845	0.942
2.21156	0.94
2.24468	0.936
2.27779	0.932
2.3109	0.932
2.34402	0.93
2.37713	0.929
2.41024	0.924
2.44336	0.921
2.47647	0.916
2.50958	0.905
2.54269	0.902
2.57581	0.902
2.60892	0.9
2.64203	0.9
2.67515	0.897
2.70826	0.894
2.74137	0.893
2.77449	0.886
2.8076	0.869
2.84071	0.842
2.87382	0.793
2.90694	0.656
2.94005	0.493
2.97316	0.689
3.00628	0.873
3.03939	0.897
3.0725	0.889
3.10562	0.873
3.13873	0.84
3.17184	0.772
3.20495	0.742
3.23807	0.736
3.27118	0.722
3.30429	0.74
3.33741	0.697
3.37052	0.73
3.40363	0.788
3.43675	0.841
3.46986	0.865
3.50297	0.9
3.53608	0.908
3.5692	0.912
3.60231	0.916
3.63542	0.921
3.66854	0.92
3.70165	0.916
3.73476	0.916
3.76788	0.916
3.80099	0.916
3.8341	0.916
3.86721	0.916
3.90033	0.914
3.93344	0.913
3.96655	0.913
3.99967	0.912
4.03278	0.912
4.06589	0.909
4.09901	0.908
4.13212	0.913
4.16523	0.913
4.19834	0.914
4.23146	0.916
4.26457	0.917
4.29768	0.917
4.3308	0.917
4.36391	0.917
4.39702	0.914
4.43013	0.914
4.46325	0.913
4.49636	0.913
4.52947	0.916
4.56259	0.918
4.5957	0.92
4.62881	0.926
4.66193	0.928
4.69504	0.926
4.72815	0.925
4.76126	0.922
4.79438	0.921
4.82749	0.921
4.8606	0.918
4.89372	0.916
4.92683	0.914
4.95994	0.91
4.99306	0.889
5.02617	0.878
5.05928	0.87
5.09239	0.872
5.12551	0.884
5.15862	0.886
5.19173	0.882
5.22485	0.876
5.25796	0.864
5.29107	0.852
5.32419	0.841
5.3573	0.834
5.39041	0.806
5.42352	0.778
5.45664	0.761
5.48975	0.749
5.52286	0.728
5.55598	0.676
5.58909	0.601
5.6222	0.464
5.65532	0.3
5.68843	0.225
5.72154	0.296
5.75465	0.409
5.78777	0.558
5.82088	0.674
5.85399	0.69
5.88711	0.69
5.92022	0.681
5.95333	0.673
5.98645	0.65
6.01956	0.596
6.05267	0.533
6.08578	0.489
6.1189	0.397
6.15201	0.19
6.18512	0.126
6.21824	0.213
6.25135	0.206
6.28446	0.132
6.31758	0.346
6.35069	0.401
6.3838	0.282
6.41691	0.237
6.45003	0.17
6.48314	0.16
6.51625	0.109
6.54937	0.096
6.58248	0.108
6.61559	0.12
6.64871	0.18
6.68182	0.248
6.71493	0.305
6.74804	0.248
6.78116	0.18
6.81427	0.081
6.84738	0.081
6.8805	0.096
6.91361	0.092
6.94672	0.142
6.97983	0.212
7.01295	0.316
7.04606	0.362
7.07917	0.408
7.11229	0.424
7.1454	0.422
7.17851	0.414
7.21163	0.406
7.24474	0.413
7.27785	0.402
7.31096	0.296
7.34408	0.221
7.37719	0.081
7.4103	0.058
7.44342	0.112
7.47653	0.188
7.50964	0.229
7.54276	0.15
7.57587	0.169
7.60898	0.2
7.64209	0.2
7.67521	0.181
7.70832	0.138
7.74143	0.094
7.77455	0.072
7.80766	0.085
7.84077	0.116
7.87389	0.148
7.907	0.156
7.94011	0.125
7.97322	0.046
8.00634	0.017
8.03945	0.022
8.07256	0.056
8.10568	0.128
8.13879	0.162
8.1719	0.138
8.20502	0.082
8.23813	0.038
8.27124	0.025
8.30435	0.028
8.33747	0.042
8.37058	0.081
8.40369	0.174
8.43681	0.3
8.46992	0.369
8.50303	0.396
8.53615	0.328
8.56926	0.246
8.60237	0.272
8.63548	0.342
8.6686	0.329
8.70171	0.358
8.73482	0.536
8.76794	0.648
8.80105	0.694
8.83416	0.706
8.86728	0.702
8.90039	0.688
8.9335	0.66
8.96661	0.624
8.99973	0.598
9.03284	0.564
9.06595	0.496
9.09907	0.361
9.13218	0.217
9.16529	0.162
9.1984	0.192
9.23152	0.248
9.26463	0.33
9.29774	0.304
9.33086	0.245
9.36397	0.173
9.39708	0.158
9.4302	0.17
9.46331	0.193
9.49642	0.232
9.52953	0.245
9.56265	0.238
9.59576	0.26
9.62887	0.313
9.66199	0.353
9.6951	0.372
9.72821	0.429
9.76133	0.522
9.79444	0.6
9.82755	0.682
9.86066	0.71
9.89378	0.709
9.92689	0.694
9.96	0.676
9.99312	0.678
10.0262	0.682
10.0593	0.686
10.0925	0.686
10.1256	0.684
10.1587	0.681
10.1918	0.678
10.2249	0.681
10.258	0.684
10.2911	0.685
10.3242	0.68
10.3574	0.672
10.3905	0.656
10.4236	0.654
10.4567	0.676
10.4898	0.71
10.5229	0.782
10.556	0.79
10.5892	0.79
10.6223	0.79
10.6554	0.79
10.6885	0.79
10.7216	0.79
10.7547	0.79
10.7878	0.79
10.8209	0.79
10.8541	0.79
10.8872	0.79
10.9203	0.79
10.9534	0.79
10.9865	0.79
11.0196	0.79
11.0527	0.79
11.0858	0.79
11.119	0.79
11.1521	0.79
11.1852	0.79
11.2183	0.79
11.2514	0.79
11.2845	0.79
11.3176	0.79
11.3507	0.79
11.3839	0.772
11.417	0.74
11.4501	0.68
11.4832	0.58
11.5163	0.456
11.5494	0.342
11.5825	0.377
11.6157	0.536
11.6488	0.634
11.6819	0.665
11.715	0.661
11.7481	0.653
11.7812	0.652
11.8143	0.666
11.8474	0.681
11.8806	0.709
11.9137	0.74
11.9468	0.764
11.9799	0.772
12.013	0.77
12.0461	0.75
12.0792	0.74
12.1123	0.694
12.1455	0.63
12.1786	0.601
12.2117	0.617
12.2448	0.669
12.2779	0.717
12.311	0.754
12.3441	0.757
12.3773	0.756
12.4104	0.752
12.4435	0.737
12.4766	0.701
12.5097	0.632
12.5428	0.553
12.5759	0.51
12.609	0.48
12.6422	0.453
12.6753	0.401
12.7084	0.329
12.7415	0.304
12.7746	0.328
12.8077	0.386
12.8408	0.461
12.8739	0.496
12.9071	0.494
12.9402	0.456
12.9733	0.409
13.0064	0.349
13.0395	0.302
13.0726	0.302
13.1057	0.305
13.1389	0.304
13.172	0.3
13.2051	0.281
13.2382	0.246
13.2713	0.202
13.3044	0.156
13.3375	0.112
13.3706	0.082
13.4038	0.062
13.4369	0.053
13.47	0.056
13.5031	0.076
13.5362	0.109
13.5693	0.153
13.6024	0.206
13.6355	0.264
13.6687	0.3
13.7018	0.326
13.7349	0.36
13.768	0.386
13.8011	0.416
13.8342	0.448
13.8673	0.482
13.9004	0.513
13.9336	0.521
13.9667	0.521
13.9998	0.512
14.0329	0.502
14.066	0.48
14.0991	0.43
14.1322	0.346
14.1654	0.26
14.1985	0.201
14.2316	0.138
14.2647	0.11
14.2978	0.108
14.3309	0.121
14.364	0.162
14.3971	0.214
14.4303	0.26
14.4634	0.266
14.4965	0.272
14.5296	0.282
14.5627	0.306
14.5958	0.317
14.6289	0.312
14.662	0.302
14.6952	0.293
14.7283	0.289
14.7614	0.289
14.7945	0.298
14.8276	0.313
14.8607	0.33
14.8938	0.34
14.927	0.342
14.9601	0.35
14.9932	0.356
