Infrared Spectrum: P-METHOXY CARBANILIC ACID, n-PENTYL ESTER
Formula: C13 H19 N O3
CAS: 93759-92-3
State: SOLID (1.5 mg / 200 mg KBr)
Class: COBLENTZ
Instrument: Not specified, most likely a grating spectrometer.
Sampling: TRANSMISSION
Resolution: 4
Origin: CITRUS EXPERIMENT STATION, UNIVERSITY OF FLORIDA (G. EDWARDS)
MICROMETERS	TRANSMITTANCE
2.033	0.825
2.06613	0.827
2.09926	0.827
2.13238	0.827
2.16551	0.823
2.19864	0.829
2.23177	0.831
2.26489	0.833
2.29802	0.835
2.33115	0.836
2.36428	0.836
2.3974	0.837
2.43053	0.837
2.46366	0.84
2.49679	0.839
2.52991	0.837
2.56304	0.852
2.59617	0.843
2.6293	0.856
2.66242	0.849
2.69555	0.841
2.72868	0.84
2.76181	0.832
2.79493	0.832
2.82806	0.819
2.86119	0.812
2.89432	0.793
2.92744	0.757
2.96057	0.671
2.9937	0.264
3.02683	0.751
3.05995	0.807
3.09308	0.832
3.12621	0.853
3.15934	0.852
3.19246	0.851
3.22559	0.84
3.25872	0.824
3.29185	0.832
3.32497	0.799
3.3581	0.598
3.39123	0.574
3.42436	0.699
3.45748	0.666
3.49061	0.734
3.52374	0.836
3.55687	0.845
3.58999	0.849
3.62312	0.852
3.65625	0.861
3.68938	0.867
3.72251	0.872
3.75563	0.872
3.78876	0.871
3.82189	0.871
3.85502	0.872
3.88814	0.873
3.92127	0.872
3.9544	0.873
3.98753	0.875
4.02065	0.872
4.05378	0.873
4.08691	0.881
4.12004	0.882
4.15316	0.88
4.18629	0.877
4.21942	0.882
4.25255	0.884
4.28567	0.886
4.3188	0.89
4.35193	0.89
4.38506	0.889
4.41818	0.889
4.45131	0.889
4.48444	0.89
4.51757	0.884
4.55069	0.89
4.58382	0.89
4.61695	0.89
4.65008	0.89
4.6832	0.889
4.71633	0.884
4.74946	0.89
4.78259	0.88
4.81571	0.876
4.84884	0.877
4.88197	0.881
4.9151	0.881
4.94822	0.881
4.98135	0.882
5.01448	0.892
5.04761	0.893
5.08073	0.89
5.11386	0.892
5.14699	0.894
5.18012	0.89
5.21324	0.89
5.24637	0.884
5.2795	0.881
5.31263	0.867
5.34576	0.882
5.37888	0.878
5.41201	0.881
5.44514	0.877
5.47827	0.876
5.51139	0.872
5.54452	0.864
5.57765	0.863
5.61078	0.861
5.6439	0.853
5.67703	0.825
5.71016	0.76
5.74329	0.684
5.77641	0.625
5.80954	0.337
5.84267	0.227
5.8758	0.417
5.90892	0.613
5.94205	0.772
5.97518	0.789
6.00831	0.793
6.04143	0.819
6.07456	0.817
6.10769	0.792
6.14082	0.747
6.17394	0.761
6.20707	0.708
6.2402	0.509
6.27333	0.759
6.30645	0.803
6.33958	0.761
6.37271	0.651
6.40584	0.347
6.43896	0.207
6.47209	0.207
6.50522	0.295
6.53835	0.365
6.57147	0.397
6.6046	0.654
6.63773	0.738
6.67086	0.775
6.70398	0.773
6.73711	0.656
6.77024	0.675
6.80337	0.625
6.83649	0.722
6.86962	0.734
6.90275	0.711
6.93588	0.768
6.96901	0.784
7.00213	0.69
7.03526	0.607
7.06839	0.736
7.10152	0.811
7.13464	0.808
7.16777	0.807
7.2009	0.825
7.23403	0.824
7.26715	0.832
7.30028	0.835
7.33341	0.831
7.36654	0.803
7.39966	0.789
7.43279	0.763
7.46592	0.703
7.49905	0.69
7.53217	0.659
7.5653	0.551
7.59843	0.441
7.63156	0.571
7.66468	0.378
7.69781	0.48
7.73094	0.655
7.76407	0.722
7.79719	0.703
7.83032	0.601
7.86345	0.531
7.89658	0.488
7.9297	0.527
7.96283	0.571
7.99596	0.545
8.02909	0.437
8.06221	0.331
8.09534	0.182
8.12847	0.123
8.1616	0.167
8.19472	0.328
8.22785	0.494
8.26098	0.595
8.29411	0.682
8.32723	0.742
8.36036	0.761
8.39349	0.739
8.42662	0.59
8.45974	0.646
8.49287	0.602
8.526	0.761
8.55913	0.809
8.59226	0.829
8.62538	0.831
8.65851	0.839
8.69164	0.844
8.72477	0.851
8.75789	0.855
8.79102	0.843
8.82415	0.817
8.85728	0.815
8.8904	0.831
8.92353	0.828
8.95666	0.811
8.98979	0.698
9.02291	0.769
9.05604	0.825
9.08917	0.832
9.1223	0.815
9.15542	0.789
9.18855	0.703
9.22168	0.482
9.25481	0.382
9.28793	0.55
9.32106	0.687
9.35419	0.736
9.38732	0.771
9.42044	0.787
9.45357	0.791
9.4867	0.791
9.51983	0.781
9.55295	0.764
9.58608	0.715
9.61921	0.623
9.65234	0.39
9.68546	0.412
9.71859	0.567
9.75172	0.708
9.78485	0.761
9.81797	0.772
9.8511	0.772
9.88423	0.793
9.91736	0.832
9.95048	0.849
9.98361	0.859
10.0167	0.861
10.0499	0.864
10.083	0.861
10.1161	0.868
10.1493	0.863
10.1824	0.849
10.2155	0.829
10.2486	0.833
10.2818	0.829
10.3149	0.847
10.348	0.863
10.3811	0.871
10.4143	0.872
10.4474	0.873
10.4805	0.868
10.5137	0.867
10.5468	0.873
10.5799	0.882
10.613	0.885
10.6462	0.885
10.6793	0.885
10.7124	0.882
10.7455	0.882
10.7787	0.878
10.8118	0.872
10.8449	0.873
10.8781	0.88
10.9112	0.88
10.9443	0.878
10.9774	0.88
11.0106	0.882
11.0437	0.881
11.0768	0.881
11.1099	0.877
11.1431	0.877
11.1762	0.88
11.2093	0.872
11.2425	0.88
11.2756	0.885
11.3087	0.886
11.3418	0.885
11.375	0.88
11.4081	0.881
11.4412	0.88
11.4744	0.878
11.5075	0.873
11.5406	0.867
11.5737	0.86
11.6069	0.856
11.64	0.856
11.6731	0.856
11.7062	0.861
11.7394	0.861
11.7725	0.861
11.8056	0.86
11.8388	0.861
11.8719	0.855
11.905	0.844
11.9381	0.833
11.9713	0.811
12.0044	0.78
12.0375	0.7
12.0706	0.609
12.1038	0.458
12.1369	0.452
12.17	0.635
12.2032	0.764
12.2363	0.783
12.2694	0.74
12.3025	0.734
12.3357	0.799
12.3688	0.841
12.4019	0.849
12.4351	0.859
12.4682	0.861
12.5013	0.861
12.5344	0.871
12.5676	0.865
12.6007	0.863
12.6338	0.859
12.6669	0.864
12.7001	0.853
12.7332	0.845
12.7663	0.836
12.7995	0.82
12.8326	0.799
12.8657	0.781
12.8988	0.74
12.932	0.742
12.9651	0.763
12.9982	0.781
13.0313	0.785
13.0645	0.772
13.0976	0.785
13.1307	0.811
13.1639	0.832
13.197	0.843
13.2301	0.845
13.2632	0.845
13.2964	0.843
13.3295	0.835
13.3626	0.812
13.3957	0.787
13.4289	0.735
13.462	0.66
13.4951	0.679
13.5283	0.726
13.5614	0.76
13.5945	0.755
13.6276	0.743
13.6608	0.75
13.6939	0.776
13.727	0.809
13.7602	0.824
13.7933	0.837
13.8264	0.841
13.8595	0.843
13.8927	0.847
13.9258	0.848
13.9589	0.847
13.992	0.848
14.0252	0.849
14.0583	0.848
14.0914	0.843
14.1246	0.839
14.1577	0.836
14.1908	0.836
14.2239	0.839
14.2571	0.833
14.2902	0.831
14.3233	0.823
14.3564	0.819
14.3896	0.817
14.4227	0.816
14.4558	0.809
14.489	0.803
14.5221	0.799
14.5552	0.796
14.5883	0.792
14.6215	0.785
14.6546	0.785
14.6877	0.783
14.7209	0.779
14.754	0.773
14.7871	0.771
14.8202	0.769
14.8534	0.763
14.8865	0.755
14.9196	0.747
14.9527	0.742
14.9859	0.75
15.019	0.755
