Infrared Spectrum: P-METHOXY CARBANILIC ACID, n-HEXYL ESTER
Formula: C14 H21 N O3
CAS: 93760-45-3
State: SOLID (1.8 mg / 200 mg KBr)
Class: COBLENTZ
Instrument: Not specified, most likely a grating spectrometer.
Sampling: TRANSMISSION
Resolution: 4
Origin: CITRUS EXPERIMENT STATION, UNIVERSITY OF FLORIDA (G. EDWARDS)
MICROMETERS	TRANSMITTANCE
2.033	0.502
2.06616	0.51
2.09932	0.518
2.13248	0.521
2.16564	0.521
2.1988	0.522
2.23195	0.527
2.26511	0.535
2.29827	0.545
2.33143	0.547
2.36459	0.55
2.39775	0.557
2.43091	0.559
2.46407	0.567
2.49723	0.575
2.53039	0.585
2.56355	0.59
2.5967	0.589
2.62986	0.59
2.66302	0.59
2.69618	0.586
2.72934	0.583
2.7625	0.581
2.79566	0.577
2.82882	0.57
2.86198	0.559
2.89514	0.549
2.9283	0.507
2.96145	0.345
2.99461	0.136
3.02777	0.492
3.06093	0.582
3.09409	0.606
3.12725	0.621
3.16041	0.619
3.19357	0.618
3.22673	0.609
3.25989	0.591
3.29305	0.589
3.3262	0.55
3.35936	0.281
3.39252	0.28
3.42568	0.416
3.45884	0.369
3.492	0.473
3.52516	0.639
3.55832	0.648
3.59148	0.655
3.62464	0.67
3.6578	0.679
3.69095	0.687
3.72411	0.688
3.75727	0.691
3.79043	0.695
3.82359	0.699
3.85675	0.702
3.88991	0.71
3.92307	0.714
3.95623	0.714
3.98939	0.711
4.02255	0.712
4.0557	0.716
4.08886	0.72
4.12202	0.72
4.15518	0.719
4.18834	0.723
4.2215	0.722
4.25466	0.724
4.28782	0.73
4.32098	0.734
4.35414	0.736
4.3873	0.738
4.42045	0.738
4.45361	0.74
4.48677	0.742
4.51993	0.744
4.55309	0.75
4.58625	0.752
4.61941	0.755
4.65257	0.756
4.68573	0.755
4.71889	0.751
4.75205	0.752
4.7852	0.753
4.81836	0.755
4.85152	0.756
4.88468	0.755
4.91784	0.756
4.951	0.763
4.98416	0.761
5.01732	0.769
5.05048	0.771
5.08364	0.771
5.1168	0.775
5.14995	0.773
5.18311	0.771
5.21627	0.773
5.24943	0.772
5.28259	0.769
5.31575	0.74
5.34891	0.757
5.38207	0.764
5.41523	0.765
5.44839	0.756
5.48155	0.756
5.5147	0.753
5.54786	0.736
5.58102	0.732
5.61418	0.72
5.64734	0.716
5.6805	0.662
5.71366	0.585
5.74682	0.523
5.77998	0.482
5.81314	0.236
5.8463	0.155
5.87945	0.204
5.91261	0.416
5.94577	0.623
5.97893	0.668
6.01209	0.674
6.04525	0.691
6.07841	0.684
6.11157	0.65
6.14473	0.606
6.17789	0.617
6.21105	0.514
6.2442	0.48
6.27736	0.679
6.31052	0.646
6.34368	0.514
6.37684	0.363
6.41	0.128
6.44316	0.087
6.47632	0.13
6.50948	0.203
6.54264	0.28
6.5758	0.313
6.60895	0.581
6.64211	0.619
6.67527	0.622
6.70843	0.553
6.74159	0.42
6.77475	0.485
6.80791	0.452
6.84107	0.542
6.87423	0.59
6.90739	0.509
6.94055	0.606
6.9737	0.642
7.00686	0.505
7.04002	0.325
7.07318	0.468
7.10634	0.676
7.1395	0.703
7.17266	0.706
7.20582	0.727
7.23898	0.698
7.27214	0.702
7.3053	0.719
7.33845	0.707
7.37161	0.671
7.40477	0.664
7.43793	0.606
7.47109	0.529
7.50425	0.547
7.53741	0.513
7.57057	0.511
7.60373	0.497
7.63689	0.462
7.67005	0.44
7.7032	0.53
7.73636	0.523
7.76952	0.523
7.80268	0.466
7.83584	0.283
7.869	0.119
7.90216	0.147
7.93532	0.174
7.96848	0.058
8.00164	0.062
8.0348	0.082
8.06795	0.122
8.10111	0.152
8.13427	0.212
8.16743	0.324
8.20059	0.412
8.23375	0.492
8.26691	0.566
8.30007	0.63
8.33323	0.679
8.36639	0.7
8.39955	0.636
8.4327	0.378
8.46586	0.537
8.49902	0.507
8.53218	0.667
8.56534	0.711
8.5985	0.765
8.63166	0.78
8.66482	0.78
8.69798	0.788
8.73114	0.8
8.7643	0.8
8.79745	0.788
8.83061	0.75
8.86377	0.75
8.89693	0.78
8.93009	0.781
8.96325	0.738
8.99641	0.589
9.02957	0.682
9.06273	0.753
9.09589	0.747
9.12905	0.686
9.1622	0.526
9.19536	0.345
9.22852	0.277
9.26168	0.42
9.29484	0.577
9.328	0.651
9.36116	0.686
9.39432	0.715
9.42748	0.756
9.46064	0.76
9.4938	0.72
9.52695	0.704
9.56011	0.66
9.59327	0.534
9.62643	0.448
9.65959	0.347
9.69275	0.301
9.72591	0.46
9.75907	0.639
9.79223	0.708
9.82539	0.761
9.85855	0.752
9.8917	0.772
9.92486	0.819
9.95802	0.839
9.99118	0.843
10.0243	0.848
10.0575	0.857
10.0907	0.86
10.1238	0.864
10.157	0.865
10.1901	0.869
10.2233	0.869
10.2565	0.863
10.2896	0.851
10.3228	0.811
10.3559	0.823
10.3891	0.863
10.4223	0.871
10.4554	0.876
10.4886	0.882
10.5217	0.882
10.5549	0.886
10.588	0.89
10.6212	0.9
10.6544	0.901
10.6875	0.9
10.7207	0.897
10.7538	0.89
10.787	0.889
10.8202	0.882
10.8533	0.875
10.8865	0.896
10.9196	0.902
10.9528	0.897
10.986	0.897
11.0191	0.9
11.0523	0.896
11.0854	0.89
11.1186	0.881
11.1517	0.88
11.1849	0.881
11.2181	0.882
11.2512	0.89
11.2844	0.9
11.3175	0.906
11.3507	0.901
11.3839	0.894
11.417	0.892
11.4502	0.89
11.4833	0.88
11.5165	0.872
11.5497	0.863
11.5828	0.863
11.616	0.864
11.6491	0.867
11.6823	0.869
11.7155	0.871
11.7486	0.872
11.7818	0.872
11.8149	0.872
11.8481	0.861
11.8812	0.86
11.9144	0.847
11.9476	0.821
11.9807	0.792
12.0139	0.763
12.047	0.704
12.0802	0.602
12.1134	0.445
12.1465	0.208
12.1797	0.151
12.2128	0.402
12.246	0.664
12.2792	0.711
12.3123	0.716
12.3455	0.761
12.3786	0.809
12.4118	0.844
12.445	0.86
12.4781	0.861
12.5113	0.864
12.5444	0.864
12.5776	0.86
12.6107	0.851
12.6439	0.836
12.6771	0.813
12.7102	0.777
12.7434	0.707
12.7765	0.611
12.8097	0.575
12.8429	0.627
12.876	0.68
12.9092	0.682
12.9423	0.631
12.9755	0.606
13.0087	0.671
13.0418	0.736
13.075	0.773
13.1081	0.807
13.1413	0.809
13.1745	0.825
13.2076	0.824
13.2408	0.823
13.2739	0.82
13.3071	0.805
13.3403	0.801
13.3734	0.784
13.4066	0.761
13.4397	0.734
13.4729	0.674
13.506	0.625
13.5392	0.631
13.5724	0.678
13.6055	0.714
13.6387	0.714
13.6718	0.686
13.705	0.613
13.7382	0.577
13.7713	0.625
13.8045	0.704
13.8376	0.752
13.8708	0.773
13.904	0.797
13.9371	0.805
13.9703	0.803
14.0034	0.804
14.0366	0.804
14.0698	0.799
14.1029	0.791
14.1361	0.787
14.1692	0.785
14.2024	0.788
14.2355	0.792
14.2687	0.787
14.3019	0.781
14.335	0.781
14.3682	0.78
14.4013	0.779
14.4345	0.771
14.4677	0.76
14.5008	0.747
14.534	0.743
14.5671	0.744
14.6003	0.744
14.6335	0.743
14.6666	0.732
14.6998	0.731
14.7329	0.716
14.7661	0.707
14.7993	0.7
14.8324	0.682
14.8656	0.667
14.8987	0.628
14.9319	0.586
14.965	0.589
14.9982	0.598
