Infrared Spectrum: 2',5'-Dihydroxypropiophenone
Formula: C 9 H 10 O 3
CAS: 938-46-5
State: gas
Origin: EPA-IR VAPOR PHASE LIBRARY
1/CM	ABSORBANCE
501.5	0.0037
513.074	0.00621
524.648	0.00735
536.222	0.00657
547.796	0.00575
559.37	0.00457
570.944	0.00451
582.518	0.00528
594.092	0.00574
605.666	0.0061
617.24	0.00772
628.814	0.00702
640.388	0.0054
651.962	0.00503
663.536	0.00613
675.11	0.00858
686.684	0.00981
698.258	0.01002
709.832	0.01124
721.406	0.01327
732.98	0.0144
744.554	0.01416
756.128	0.01256
767.702	0.01279
779.276	0.02171
790.85	0.02645
802.423	0.01375
813.997	0.01402
825.571	0.02234
837.145	0.01819
848.719	0.00928
860.293	0.00716
871.867	0.00822
883.441	0.01611
895.015	0.02388
906.589	0.00916
918.163	0.00384
929.737	0.00333
941.311	0.00426
952.885	0.00791
964.459	0.01202
976.033	0.01251
987.607	0.00803
999.181	0.00954
1010.76	0.01056
1022.33	0.00496
1033.9	0.00311
1045.48	0.00347
1057.05	0.00467
1068.63	0.00552
1080.2	0.00693
1091.77	0.00754
1103.35	0.00772
1114.92	0.00859
1126.49	0.01207
1138.07	0.01855
1149.64	0.03658
1161.22	0.09386
1172.79	0.12605
1184.36	0.08794
1195.94	0.06222
1207.51	0.0435
1219.09	0.0284
1230.66	0.02746
1242.23	0.03511
1253.81	0.04688
1265.38	0.05679
1276.96	0.07592
1288.53	0.0713
1300.1	0.04155
1311.68	0.02705
1323.25	0.02331
1334.83	0.02864
1346.4	0.0333
1357.97	0.03195
1369.55	0.02752
1381.12	0.02305
1392.7	0.02092
1404.27	0.02088
1415.84	0.02415
1427.42	0.02797
1438.99	0.02928
1450.57	0.02886
1462.14	0.03617
1473.71	0.0656
1485.29	0.0973
1496.86	0.07163
1508.44	0.03079
1520.01	0.01483
1531.58	0.01011
1543.16	0.00859
1554.73	0.00878
1566.31	0.01191
1577.88	0.02005
1589.45	0.02617
1601.03	0.02144
1612.6	0.02003
1624.18	0.02639
1635.75	0.0339
1647.32	0.06011
1658.9	0.08298
1670.47	0.04546
1682.05	0.0163
1693.62	0.00875
1705.19	0.0063
1716.77	0.00531
1728.34	0.00462
1739.92	0.00376
1751.49	0.00296
1763.06	0.00257
1774.64	0.00237
1786.21	0.00201
1797.79	0.00168
1809.36	0.00144
1820.93	0.00121
1832.51	0.00104
1844.08	0.00113
1855.66	0.00142
1867.23	0.00159
1878.8	0.00158
1890.38	0.00196
1901.95	0.00177
1913.53	0.00117
1925.1	0.0009285
1936.67	0.0008874
1948.25	0.0009609
1959.82	0.0009743
1971.4	0.0008714
1982.97	0.0008354
1994.54	0.0008127
2006.12	0.0008112
2017.69	0.0008058
2029.27	0.0009083
2040.84	0.00114
2052.41	0.00123
2063.99	0.00111
2075.56	0.0009507
2087.14	0.0008588
2098.71	0.0007375
2110.28	0.0006496
2121.86	0.0006182
2133.43	0.0006432
2145.01	0.0006757
2156.58	0.0006909
2168.15	0.0006184
2179.73	0.0005927
2191.3	0.0005373
2202.88	0.0004948
2214.45	0.0005036
2226.02	0.0005579
2237.6	0.0006798
2249.17	0.0007449
2260.74	0.0007427
2272.32	0.0007562
2283.89	0.0007681
2295.47	0.0007641
2307.04	0.0007786
2318.61	0.0008767
2330.19	0.0009718
2341.76	0.00108
2353.34	0.00128
2364.91	0.00147
2376.48	0.00151
2388.06	0.0014
2399.63	0.00126
2411.21	0.00123
2422.78	0.00127
2434.35	0.00131
2445.93	0.00144
2457.5	0.0015
2469.08	0.00141
2480.65	0.00138
2492.22	0.0013
2503.8	0.00129
2515.37	0.00134
2526.95	0.00143
2538.52	0.0016
2550.09	0.00159
2561.67	0.00161
2573.24	0.00161
2584.82	0.00165
2596.39	0.00178
2607.96	0.00189
2619.54	0.00184
2631.11	0.00188
2642.69	0.0019
2654.26	0.00208
2665.83	0.00217
2677.41	0.00216
2688.98	0.00215
2700.56	0.00218
2712.13	0.00223
2723.7	0.00232
2735.28	0.0025
2746.85	0.00278
2758.43	0.00279
2770	0.00268
2781.57	0.00265
2793.15	0.00264
2804.72	0.00276
2816.3	0.00299
2827.87	0.00326
2839.44	0.00348
2851.02	0.0036
2862.59	0.00406
2874.17	0.00536
2885.74	0.00789
2897.31	0.00884
2908.89	0.00866
2920.46	0.01065
2932.04	0.01112
2943.61	0.01412
2955.18	0.01643
2966.76	0.01155
2978.33	0.01533
2989.91	0.0213
3001.48	0.01471
3013.05	0.00988
3024.63	0.00995
3036.2	0.01137
3047.78	0.01216
3059.35	0.01169
3070.92	0.01162
3082.5	0.01095
3094.07	0.00968
3105.65	0.00951
3117.22	0.0098
3128.79	0.00993
3140.37	0.00984
3151.94	0.00964
3163.52	0.00948
3175.09	0.0094
3186.66	0.00934
3198.24	0.00923
3209.81	0.00916
3221.39	0.009
3232.96	0.00882
3244.53	0.0085
3256.11	0.0084
3267.68	0.00844
3279.26	0.00838
3290.83	0.00823
3302.4	0.00797
3313.98	0.00764
3325.55	0.00705
3337.13	0.00652
3348.7	0.00613
3360.27	0.0057
3371.85	0.00532
3383.42	0.00494
3395	0.00486
3406.57	0.00474
3418.14	0.00456
3429.72	0.00426
3441.29	0.00402
3452.86	0.00374
3464.44	0.00347
3476.01	0.00317
3487.59	0.00289
3499.16	0.0026
3510.73	0.00235
3522.31	0.00208
3533.88	0.00186
3545.46	0.00168
3557.03	0.0016
3568.6	0.00146
3580.18	0.00132
3591.75	0.00147
3603.33	0.00162
3614.9	0.0019
3626.47	0.00312
3638.05	0.0078
3649.62	0.02466
3661.2	0.03015
3672.77	0.00741
3684.34	0.00164
3695.92	0.0009952
3707.49	0.0008861
3719.07	0.0007767
3730.64	0.0007586
3742.21	0.0007016
3753.79	0.0006946
3765.36	0.0007616
3776.94	0.0008991
3788.51	0.0009231
3800.08	0.0009366
3811.66	0.00103
3823.23	0.0009774
3834.81	0.0008778
3846.38	0.0009997
3857.95	0.00111
3869.53	0.00108
3881.1	0.0008266
3892.68	0.0008344
3904.25	0.0009523
3915.82	0.0008252
3927.4	0.0006723
3938.97	0.0005731
3950.55	0.0005768
3962.12	0.0006201
3973.69	0.0006552
3985.27	0.0006773
3996.84	0.0006431
