Infrared Spectrum: 2,4,6-Trimethylbenzoyl chloride
Formula: C 10 H 11 Cl O
CAS: 938-18-1
State: gas
Origin: EPA-IR VAPOR PHASE LIBRARY
1/CM	ABSORBANCE
549.8	0.020647
559.445	0.008877
569.09	0.003607
578.735	0.002597
588.38	0.003517
598.025	0.012617
607.67	0.041077
617.315	0.041647
626.96	0.011927
636.605	0.004097
646.251	0.003137
655.896	0.002987
665.541	0.003097
675.186	0.003667
684.831	0.003747
694.476	0.003587
704.121	0.005017
713.766	0.006647
723.411	0.005987
733.056	0.006817
742.701	0.004957
752.346	0.003327
761.991	0.003467
771.636	0.005027
781.281	0.008867
790.926	0.020017
800.571	0.038167
810.216	0.073827
819.861	0.143757
829.507	0.143057
839.152	0.065557
848.797	0.036557
858.442	0.024257
868.087	0.014967
877.732	0.009947
887.377	0.006977
897.022	0.004987
906.667	0.004307
916.312	0.004317
925.957	0.003997
935.602	0.004697
945.247	0.008027
954.892	0.009577
964.537	0.006087
974.182	0.003997
983.827	0.003497
993.472	0.003507
1003.12	0.004137
1012.76	0.004407
1022.41	0.004147
1032.05	0.004357
1041.7	0.004457
1051.34	0.003827
1060.99	0.003357
1070.63	0.002897
1080.28	0.002427
1089.92	0.002617
1099.57	0.002937
1109.21	0.004087
1118.86	0.006227
1128.5	0.014337
1138.15	0.027747
1147.79	0.019377
1157.44	0.006217
1167.08	0.003397
1176.73	0.002907
1186.37	0.006427
1196.02	0.022657
1205.66	0.031517
1215.31	0.011697
1224.95	0.003837
1234.6	0.002787
1244.24	0.002537
1253.89	0.002327
1263.53	0.002547
1273.18	0.003187
1282.82	0.003937
1292.47	0.005007
1302.11	0.003837
1311.76	0.002437
1321.4	0.002497
1331.05	0.002657
1340.69	0.002857
1350.34	0.003357
1359.98	0.004007
1369.63	0.004897
1379.27	0.007017
1388.92	0.008517
1398.56	0.006517
1408.21	0.006607
1417.85	0.009377
1427.5	0.012197
1437.14	0.012767
1446.79	0.012537
1456.43	0.012587
1466.08	0.012067
1475.73	0.010897
1485.37	0.009697
1495.02	0.008187
1504.66	0.007367
1514.31	0.007267
1523.95	0.007847
1533.6	0.008237
1543.24	0.008247
1552.89	0.008497
1562.53	0.009567
1572.18	0.010847
1581.82	0.011177
1591.47	0.012667
1601.11	0.024017
1610.76	0.028547
1620.4	0.011937
1630.05	0.004227
1639.69	0.003347
1649.34	0.003157
1658.98	0.002717
1668.63	0.002417
1678.27	0.002207
1687.92	0.002057
1697.56	0.002167
1707.21	0.002727
1716.85	0.004127
1726.5	0.005627
1736.14	0.006727
1745.79	0.008847
1755.43	0.013077
1765.08	0.016737
1774.72	0.023197
1784.37	0.051287
1794.01	0.126257
1803.66	0.159547
1813.3	0.072817
1822.95	0.019847
1832.59	0.011607
1842.24	0.007767
1851.88	0.005067
1861.53	0.005277
1871.17	0.004217
1880.82	0.002367
1890.46	0.0015722
1900.11	0.00133
1909.75	0.001252
1919.4	0.0013306
1929.04	0.0013901
1938.69	0.0013933
1948.33	0.0014969
1957.98	0.001667
1967.62	0.0014565
1977.27	0.0011566
1986.91	0.0011064
1996.56	0.000999
2006.2	0.0009094
2015.85	0.0009313
2025.49	0.0009567
2035.14	0.0008496
2044.78	0.0005811
2054.43	0.0005832
2064.07	0.0005025
2073.72	0.0005399
2083.36	0.0005648
2093.01	0.0005407
2102.65	0.00048
2112.3	0.000468
2121.94	0.000481
2131.59	0.000487
2141.23	0.0005431
2150.88	0.0005094
2160.52	0.000481
2170.17	0.0005671
2179.81	0.000603411
2189.46	0.000487
2199.1	0.0005328
2208.75	0.0005604
2218.39	0.00059131
2228.04	0.0005727
2237.68	0.0005453
2247.33	0.0005046
2256.97	0.00059375
2266.62	0.00062717
2276.26	0.00063987
2285.91	0.000475
2295.55	0.000363
2305.2	0.00045
2314.84	0.0005818
2324.49	0.00068357
2334.13	0.0008744
2343.78	0.0009354
2353.42	0.0007162
2363.07	0.0005634
2372.72	0.000522
2382.36	0.00061054
2392.01	0.000737
2401.65	0.0008748
2411.3	0.0009219
2420.94	0.0008322
2430.59	0.00067328
2440.23	0.00064559
2449.88	0.00058773
2459.52	0.0006411
2469.17	0.00062026
2478.81	0.000602029
2488.46	0.0005216
2498.1	0.000487
2507.75	0.0005152
2517.39	0.00044
2527.04	0.000453
2536.68	0.000487
2546.33	0.000485
2555.97	0.000386
2565.62	0.000383
2575.26	0.000405
2584.91	0.000411
2594.55	0.000479
2604.2	0.0005184
2613.84	0.0005652
2623.49	0.0007103
2633.13	0.00068134
2642.78	0.00066625
2652.42	0.0005776
2662.07	0.0005321
2671.71	0.0007174
2681.36	0.00068716
2691	0.0005411
2700.65	0.000495
2710.29	0.0005769
2719.94	0.0005626
2729.58	0.0009043
2739.23	0.0013934
2748.87	0.001737
2758.52	0.0014309
2768.16	0.0009844
2777.81	0.000859
2787.45	0.0009003
2797.1	0.0010477
2806.74	0.0013523
2816.39	0.0014599
2826.03	0.001847
2835.68	0.002417
2845.32	0.003607
2854.97	0.005857
2864.61	0.009557
2874.26	0.012317
2883.9	0.011277
2893.55	0.010247
2903.19	0.010947
2912.84	0.013657
2922.48	0.021007
2932.13	0.028757
2941.77	0.026327
2951.42	0.018057
2961.06	0.013677
2970.71	0.013067
2980.35	0.014357
2990	0.015377
2999.64	0.015697
3009.29	0.015697
3018.93	0.016607
3028.58	0.017277
3038.22	0.016077
3047.87	0.012977
3057.51	0.008747
3067.16	0.005827
3076.8	0.004247
3086.45	0.003467
3096.09	0.002547
3105.74	0.001927
3115.38	0.001421
3125.03	0.0011613
3134.67	0.0010332
3144.32	0.0008342
3153.96	0.000602986
3163.61	0.0006148
3173.25	0.000417
3182.9	0.000325
3192.54	0.000273
3202.19	0.000399
3211.83	0.000266
3221.48	0.000293
3231.12	0.000223
3240.77	0.000409
3250.41	0.000225
3260.06	0.000338
3269.7	0.00021
3279.35	0.000311
3289	0.000125
3298.64	0.000169
3308.29	0.00032
3317.93	0.000235
3327.58	0.000135
3337.22	0.000182
3346.87	0.000328
3356.51	0.000261
3366.16	0.000198
3375.8	0.00029
3385.45	0.000203
3395.09	0.00012
3404.74	0.000186
3414.38	0.000181
3424.03	0.00011
3433.67	0.000173
3443.32	0.000307
3452.96	0.000297
3462.61	0.000385
3472.25	0.000292
3481.9	0.000222
3491.54	0.000344
3501.19	0.000296
3510.83	0.000495
3520.48	0.000481
3530.12	0.00062481
3539.77	0.00061813
3549.41	0.0007901
3559.06	0.0015231
3568.7	0.002167
3578.35	0.002127
3587.99	0.0015196
3597.64	0.0011775
3607.28	0.00062524
3616.93	0.000404
3626.57	0.000346
3636.22	0.000441
3645.86	0.000291
3655.51	0.000258
3665.15	0.000236
3674.8	0.000163
3684.44	0.000115
3694.09	0.000249
3703.73	0.000261
3713.38	0.000177
3723.02	6.9e-05
3732.67	0.000178
3742.31	0.000326
3751.96	0.000333
3761.6	0.000168
3771.25	0.000142
3780.89	0.000384
3790.54	0.000322
3800.18	0.000213
3809.83	0.00028
3819.47	0.000241
3829.12	0.000168
3838.76	0.000431
3848.41	0.000343
3858.05	0.000295
3867.7	0.000496
3877.34	0.000125
3886.99	0.000455
3896.63	0.000408
3906.28	0.000265
3915.92	0.0005828
3925.57	0.0005017
3935.21	0.000298
3944.86	0.000361
3954.5	0.00065578
3964.15	0.0005253
3973.79	0.000479
3983.44	0.0005789
3993.08	0.000387
