Infrared Spectrum: p-Chloro-methylphenyl acetic acid
Formula: C 9 H 9 Cl O 2
CAS: 938-95-4
State: gas
Instrument: HP-GC/MS/IRD
Origin: NIST Mass Spectrometry Data Center
1/CM	ABSORBANCE
550	0.0024273
562	0.0051705
574	0.0049383
586	0.0039258
598	0.0036882
610	0.0040743
622	0.0037476
634	0.0034047
646	0.0027486
658	0.0011475
670	0.0005427
682	0.0004644
694	0.0004995
706	0.0009315
718	0.0013527
730	0.0015768
742	0.0031158
754	0.0036936
766	0.0015525
778	0.0010098
790	0.0010881
802	0.0015471
814	0.0019629
826	0.0028404
838	0.0027513
850	0.00162
862	0.0006669
874	0.0002457
886	8.1e-05
898	4.59e-05
910	2.43e-05
922	2.97e-05
934	6.48e-05
946	9.18e-05
958	0.0001809
970	0.0004428
982	0.0010179
994	0.0016092
1006	0.002592
1018	0.0055296
1030	0.0023895
1042	0.0034344
1054	0.0050544
1066	0.0069903
1078	0.0080325
1090	0.013905
1102	0.0142695
1114	0.0109107
1126	0.0140697
1138	0.0128439
1150	0.0084645
1162	0.006399
1174	0.0041931
1186	0.0027378
1198	0.0020439
1210	0.0013959
1222	0.0011961
1234	0.0009153
1246	0.0009504
1258	0.0010476
1270	0.0010314
1282	0.0012204
1294	0.0014715
1306	0.0016335
1318	0.0016794
1330	0.0017523
1342	0.0020142
1354	0.0023679
1366	0.0023571
1378	0.0021384
1390	0.0019602
1402	0.0016875
1414	0.0016632
1426	0.0010503
1438	0.0008991
1450	0.0014472
1462	0.002349
1474	0.0027054
1486	0.0075465
1498	0.0089721
1510	0.0016902
1522	0.0005778
1534	0.0003429
1546	0.0002916
1558	0.0003159
1570	0.0003969
1582	0.0004671
1594	0.0007506
1606	0.0006426
1618	0.0003564
1630	0.0003618
1642	0.0003996
1654	0.0003996
1666	0.0002916
1678	0.000324
1690	0.0003753
1702	0.000594
1714	0.0010314
1726	0.0022194
1738	0.0046359
1750	0.0082674
1762	0.0170802
1774	0.027
1786	0.0151281
1798	0.0078111
1810	0.003807
1822	0.0015606
1834	0.0007965
1846	0.0005238
1858	0.0003645
1870	0.0003726
1882	0.0005049
1894	0.0005211
1906	0.0003213
1918	0.0001836
1930	0.000135
1942	0.0001296
1954	6.75e-05
1966	9.72e-05
1978	7.29e-05
1990	5.67e-05
2002	2.7e-05
2014	1.08e-05
2026	1.62e-05
2038	2.97e-05
2050	3.24e-05
2062	3.78e-05
2074	2.7e-06
2086	1.89e-05
2098	1.35e-05
2110	2.7e-05
2122	6.21e-05
2134	3.24e-05
2146	4.59e-05
2158	4.59e-05
2170	5.13e-05
2182	7.29e-05
2194	8.64e-05
2206	7.83e-05
2218	7.83e-05
2230	8.64e-05
2242	0.0001053
2254	6.21e-05
2266	6.21e-05
2278	9.99e-05
2290	0.0001323
2302	0.0001701
2314	0.0002052
2326	0.0002133
2338	0.0001917
2350	0.0001755
2362	0.0002484
2374	0.0002025
2386	9.99e-05
2398	6.75e-05
2410	5.94e-05
2422	7.02e-05
2434	0.0001053
2446	7.56e-05
2458	6.48e-05
2470	9.45e-05
2482	7.29e-05
2494	4.86e-05
2506	2.16e-05
2518	6.48e-05
2530	5.4e-05
2542	6.21e-05
2554	4.05e-05
2566	7.29e-05
2578	5.94e-05
2590	9.18e-05
2602	0.0001026
2614	6.21e-05
2626	3.51e-05
2638	6.48e-05
2650	5.4e-05
2662	1.62e-05
2674	5.13e-05
2686	5.4e-06
2698	6.48e-05
2710	5.67e-05
2722	6.48e-05
2734	7.83e-05
2746	1.62e-05
2758	6.48e-05
2770	8.1e-05
2782	8.1e-05
2794	8.1e-05
2806	8.91e-05
2818	0.0001647
2830	0.000162
2842	0.0002106
2854	0.0001728
2866	0.0002889
2878	0.0005886
2890	0.0009369
2902	0.0008694
2914	0.0008451
2926	0.0010233
2938	0.0016848
2950	0.0021951
2962	0.0013338
2974	0.0015498
2986	0.0042174
2998	0.0034371
3010	0.0011988
3022	0.000783
3034	0.0010206
3046	0.0009288
3058	0.0006831
3070	0.0005643
3082	0.0007182
3094	0.0008343
3106	0.0006156
3118	0.0003132
3130	0.0001674
3142	9.18e-05
3154	0.0001269
3166	0.0001485
3178	0.0001431
3190	0.0001242
3202	0.0001404
3214	0.0001026
3226	0.0001026
3238	8.64e-05
3250	0.0001107
3262	0.0001215
3274	8.37e-05
3286	0.0001242
3298	6.75e-05
3310	6.21e-05
3322	7.56e-05
3334	6.21e-05
3346	8.91e-05
3358	0.000108
3370	9.18e-05
3382	9.72e-05
3394	7.29e-05
3406	9.99e-05
3418	9.45e-05
3430	3.78e-05
3442	8.37e-05
3454	9.45e-05
3466	0.0001161
3478	0.0001242
3490	0.0002511
3502	0.0002592
3514	0.0003105
3526	0.0004671
3538	0.000675
3550	0.0012636
3562	0.0049302
3574	0.0108756
3586	0.0036504
3598	0.0008991
3610	0.0004347
3622	0.0002592
3634	0.0001377
3646	0.0001755
3658	0.0001134
3670	9.45e-05
3682	0.0001701
3694	0.0001944
3706	8.91e-05
3718	0.0001053
3730	0.0001188
3742	0.0001053
3754	7.29e-05
3766	0.000189
3778	9.99e-05
3790	0.0001269
3802	7.02e-05
3814	0.0002133
3826	8.37e-05
3838	0.0001053
