Infrared Spectrum: 6-DIMETHYLAMINO-9H-PURINE
Formula: C7 H9 N5
CAS: 938-55-6
State: SOLID (SPLIT MULL), FLUOROLUBE FOR 3800-1330 CM^-^1, NUJOL FOR 1330-400 CM^-^1
Class: COBLENTZ III
Instrument: DOW KBr FOREPRISM-GRATING
Instrument parameters: BLAZED AT 3.5, 12.0, 20.0 MICRON AND CHANGED AT 5.0, 7.5, 14.9 MICRON
Sampling: TRANSMISSION
Resolution: 2
Origin: DOW CHEMICAL COMPANY
1/CM	TRANSMITTANCE
390	0.6808
399	0.6915
408	0.7012
417	0.7097
426	0.718
435	0.7273
444	0.7366
453	0.7442
462	0.7502
471	0.7556
480	0.761
489	0.7658
498	0.77
507	0.7702
516	0.7686
525	0.7673
534	0.7701
543	0.7419
552	0.7783
561	0.7794
570	0.7826
579	0.7838
588	0.785
597	0.7855
606	0.7844
615	0.7792
624	0.7332
633	0.7706
642	0.5766
651	0.7868
660	0.807
669	0.7969
678	0.7291
687	0.4867
696	0.795
705	0.7854
714	0.7681
723	0.7463
732	0.7643
741	0.7723
750	0.7727
759	0.7708
768	0.7675
777	0.7614
786	0.7483
795	0.5539
804	0.7641
813	0.761
822	0.7543
831	0.7443
840	0.7293
849	0.7003
858	0.6407
867	0.478
876	0.6381
885	0.6203
894	0.6639
903	0.7075
912	0.7063
921	0.6721
930	0.6514
939	0.4084
948	0.649
957	0.693
966	0.7395
975	0.7428
984	0.7439
993	0.741
1002	0.7383
1011	0.7359
1020	0.7341
1029	0.7302
1038	0.7239
1047	0.7085
1056	0.6839
1065	0.6464
1074	0.5311
1083	0.5816
1092	0.7207
1101	0.7236
1110	0.7098
1119	0.6993
1128	0.6174
1137	0.6217
1146	0.7082
1155	0.7103
1164	0.7047
1173	0.7028
1182	0.7001
1191	0.6807
1200	0.6542
1209	0.6481
1218	0.6597
1227	0.6369
1236	0.5992
1245	0.4945
1254	0.3913
1263	0.5757
1272	0.6591
1281	0.6487
1290	0.5974
1299	0.3423
1308	0.6244
1317	0.6211
1326	0.558
1335	0.2625
1344	0.4908
1353	0.6758
1362	0.6334
1371	0.6874
1380	0.6692
1389	0.6267
1398	0.5633
1407	0.3732
1416	0.4394
1425	0.6462
1434	0.6237
1443	0.6513
1452	0.6892
1461	0.6685
1470	0.6804
1479	0.7236
1488	0.7105
1497	0.6836
1506	0.6569
1515	0.6233
1524	0.5871
1533	0.5736
1542	0.5556
1551	0.5141
1560	0.4614
1569	0.3326
1578	0.1951
1587	0.1104
1596	0.1363
1605	0.196
1614	0.4008
1623	0.7156
1632	0.8171
1641	0.8514
1650	0.8882
1659	0.8911
1668	0.8753
1677	0.8605
1686	0.8681
1695	0.8599
1704	0.8448
1713	0.8248
1722	0.8243
1731	0.8332
1740	0.8373
1749	0.8393
1758	0.8402
1767	0.8411
1776	0.8418
1785	0.8428
1794	0.8438
1803	0.8441
1812	0.8442
1821	0.8436
1830	0.8431
1839	0.8415
1848	0.8399
1857	0.838
1866	0.8358
1875	0.8339
1884	0.8321
1893	0.8305
1902	0.8291
1911	0.8275
1920	0.812
1929	0.8282
1938	0.8272
1947	0.824
1956	0.8216
1965	0.8168
1974	0.8181
1983	0.8204
1992	0.8155
2001	0.8129
2010	0.8151
2019	0.8144
2028	0.8119
2037	0.8084
2046	0.8041
2055	0.8019
2064	0.7997
2073	0.7975
2082	0.7954
2091	0.7933
2100	0.7912
2109	0.789
2118	0.7859
2127	0.7826
2136	0.7794
2145	0.776
2154	0.7727
2163	0.7694
2172	0.7659
2181	0.7623
2190	0.7588
2199	0.7554
2208	0.7529
2217	0.7505
2226	0.748
2235	0.7455
2244	0.7431
2253	0.7406
2262	0.7367
2271	0.7313
2280	0.7262
2289	0.7254
2298	0.7265
2307	0.7191
2316	0.6973
2325	0.7003
2334	0.6994
2343	0.6943
2352	0.6882
2361	0.6853
2370	0.6844
2379	0.6839
2388	0.6829
2397	0.6807
2406	0.6788
2415	0.6769
2424	0.6746
2433	0.671
2442	0.6639
2451	0.6592
2460	0.6567
2469	0.6547
2478	0.6524
2487	0.6483
2496	0.6401
2505	0.6328
2514	0.6258
2523	0.6194
2532	0.6131
2541	0.6064
2550	0.5992
2559	0.5944
2568	0.5912
2577	0.5928
2586	0.601
2595	0.6017
2604	0.5996
2613	0.5958
2622	0.5891
2631	0.5826
2640	0.5752
2649	0.5673
2658	0.5574
2667	0.5479
2676	0.5489
2685	0.5552
2694	0.5594
2703	0.5538
2712	0.5588
2721	0.5589
2730	0.5575
2739	0.5542
2748	0.5485
2757	0.54
2766	0.5297
2775	0.5188
2784	0.5102
2793	0.508
2802	0.5089
2811	0.511
2820	0.5313
2829	0.553
2838	0.5668
2847	0.5715
2856	0.5741
2865	0.5773
2874	0.5854
2883	0.594
2892	0.5856
2901	0.5691
2910	0.5549
2919	0.5448
2928	0.5369
2937	0.5338
2946	0.5376
2955	0.5446
2964	0.5559
2973	0.5683
2982	0.5807
2991	0.6063
3000	0.6322
3009	0.6497
3018	0.6567
3027	0.6546
3036	0.6391
3045	0.621
3054	0.6063
3063	0.592
3072	0.5924
3081	0.6031
3090	0.626
3099	0.6474
3108	0.6695
3117	0.688
3126	0.7001
3135	0.7039
3144	0.7435
3153	0.7512
3162	0.753
3171	0.7508
3180	0.7454
3189	0.7446
3198	0.7508
3207	0.7572
3216	0.7612
3225	0.763
3234	0.7647
3243	0.7653
3252	0.7659
3261	0.7665
3270	0.766
3279	0.7642
3288	0.7618
3297	0.7587
3306	0.7566
3315	0.7544
3324	0.7523
3333	0.7496
3342	0.7469
3351	0.7448
3360	0.7428
3369	0.7405
3378	0.7383
3387	0.736
3396	0.7337
3405	0.7314
3414	0.7289
3423	0.7263
3432	0.7237
3441	0.721
3450	0.7185
3459	0.7158
3468	0.7133
3477	0.7107
3486	0.7083
3495	0.706
3504	0.7038
3513	0.7016
3522	0.6996
3531	0.6975
3540	0.6957
3549	0.6941
3558	0.6926
3567	0.691
3576	0.6884
3585	0.6847
3594	0.6824
3603	0.6859
3612	0.6875
3621	0.6861
3630	0.6848
3639	0.6834
3648	0.6816
3657	0.679
3666	0.6765
3675	0.6738
3684	0.6711
3693	0.6685
3702	0.6645
3711	0.6624
3720	0.6646
3729	0.6642
3738	0.6624
3747	0.6604
3756	0.6592
3765	0.658
3774	0.6567
3783	0.6552
3792	0.6541
3801	0.6535
3810	0.6533
