Infrared Spectrum: 1,2,3-TRIKETOHYDRINDENE
Formula: C9 H4 O3
CAS: 938-24-9
State: SOLID (MINERAL OIL MULL)
Class: COBLENTZ
Instrument: Not specified, most likely a prism, grating, or hybrid spectrometer.
Sampling: TRANSMISSION
Resolution: 4
Origin: WYANDOTTE CHEMICALS CORP., WYANDOTTE, MICHIGAN, USA
MICROMETERS	TRANSMITTANCE
2.02	0.324
2.06086	0.311
2.10172	0.289
2.14258	0.277
2.18343	0.272
2.22429	0.258
2.26515	0.256
2.30601	0.251
2.34687	0.26
2.38773	0.251
2.42858	0.251
2.46944	0.258
2.5103	0.26
2.55116	0.278
2.59202	0.294
2.63288	0.294
2.67374	0.309
2.71459	0.297
2.75545	0.314
2.79631	0.324
2.83717	0.333
2.87803	0.345
2.91889	0.35
2.95975	0.346
3.0006	0.338
3.04146	0.304
3.08232	0.275
3.12318	0.244
3.16404	0.227
3.2049	0.224
3.24575	0.224
3.28661	0.221
3.32747	0.204
3.36833	0.151
3.40919	0.103
3.45005	0.09
3.49091	0.074
3.53176	0.083
3.57262	0.176
3.61348	0.255
3.65434	0.28
3.6952	0.307
3.73606	0.329
3.77691	0.318
3.81777	0.323
3.85863	0.324
3.89949	0.343
3.94035	0.369
3.98121	0.38
4.02207	0.382
4.06292	0.403
4.10378	0.416
4.14464	0.423
4.1855	0.431
4.22636	0.426
4.26722	0.421
4.30807	0.421
4.34893	0.42
4.38979	0.425
4.43065	0.442
4.47151	0.459
4.51237	0.467
4.55323	0.479
4.59408	0.491
4.63494	0.5
4.6758	0.5
4.71666	0.503
4.75752	0.498
4.79838	0.523
4.83924	0.528
4.88009	0.534
4.92095	0.551
4.96181	0.562
5.00267	0.568
5.04353	0.573
5.08439	0.585
5.12524	0.6
5.1661	0.62
5.20696	0.658
5.24782	0.666
5.28868	0.692
5.32954	0.721
5.3704	0.732
5.41125	0.767
5.45211	0.811
5.49297	0.829
5.53383	0.841
5.57469	0.909
5.61555	0.918
5.6564	0.802
5.69726	0.617
5.73812	0.386
5.77898	0.329
5.81984	0.289
5.8607	0.258
5.90156	0.273
5.94241	0.314
5.98327	0.353
6.02413	0.394
6.06499	0.423
6.10585	0.462
6.14671	0.5
6.18756	0.54
6.22842	0.494
6.26928	0.414
6.31014	0.433
6.351	0.481
6.39186	0.513
6.43272	0.534
6.47357	0.535
6.51443	0.552
6.55529	0.562
6.59615	0.571
6.63701	0.564
6.67787	0.551
6.71873	0.518
6.75958	0.447
6.80044	0.267
6.8413	0.234
6.88216	0.261
6.92302	0.353
6.96388	0.46
7.00473	0.517
7.04559	0.515
7.08645	0.472
7.12731	0.425
7.16817	0.386
7.20903	0.324
7.24989	0.255
7.29074	0.275
7.3316	0.348
7.37246	0.408
7.41332	0.452
7.45418	0.471
7.49504	0.476
7.53589	0.494
7.57675	0.53
7.61761	0.564
7.65847	0.573
7.69933	0.588
7.74019	0.522
7.78105	0.522
7.8219	0.564
7.86276	0.571
7.90362	0.551
7.94448	0.52
7.98534	0.491
8.0262	0.506
8.06705	0.523
8.10791	0.52
8.14877	0.515
8.18963	0.5
8.23049	0.484
8.27135	0.465
8.31221	0.435
8.35306	0.404
8.39392	0.345
8.43478	0.265
8.47564	0.255
8.5165	0.26
8.55736	0.268
8.59822	0.311
8.63907	0.316
8.67993	0.277
8.72079	0.278
8.76165	0.299
8.80251	0.316
8.84337	0.343
8.88422	0.358
8.92508	0.394
8.96594	0.421
9.0068	0.448
9.04766	0.465
9.08852	0.45
9.12938	0.46
9.17023	0.426
9.21109	0.367
9.25195	0.338
9.29281	0.321
9.33367	0.318
9.37453	0.302
9.41538	0.275
9.45624	0.263
9.4971	0.28
9.53796	0.301
9.57882	0.341
9.61968	0.367
9.66054	0.386
9.70139	0.416
9.74225	0.442
9.78311	0.46
9.82397	0.462
9.86483	0.421
9.90569	0.414
9.94655	0.447
9.9874	0.397
10.0283	0.372
10.0691	0.406
10.11	0.431
10.1508	0.482
10.1917	0.498
10.2326	0.52
10.2734	0.552
10.3143	0.574
10.3551	0.579
10.396	0.598
10.4368	0.603
10.4777	0.612
10.5186	0.6
10.5594	0.564
10.6003	0.455
10.6411	0.346
10.682	0.285
10.7229	0.28
10.7637	0.301
10.8046	0.34
10.8454	0.384
10.8863	0.425
10.9271	0.472
10.968	0.503
11.0089	0.535
11.0497	0.569
11.0906	0.59
11.1314	0.6
11.1723	0.617
11.2132	0.634
11.254	0.654
11.2949	0.6
11.3357	0.573
11.3766	0.608
11.4175	0.639
11.4583	0.666
11.4992	0.69
11.54	0.709
11.5809	0.717
11.6217	0.732
11.6626	0.739
11.7035	0.746
11.7443	0.751
11.7852	0.76
11.826	0.773
11.8669	0.777
11.9078	0.79
11.9486	0.807
11.9895	0.816
12.0303	0.824
12.0712	0.828
12.112	0.831
12.1529	0.848
12.1938	0.852
12.2346	0.853
12.2755	0.852
12.3163	0.853
12.3572	0.855
12.3981	0.865
12.4389	0.867
12.4798	0.87
12.5206	0.872
12.5615	0.87
12.6023	0.85
12.6432	0.853
12.6841	0.869
12.7249	0.874
12.7658	0.867
12.8066	0.875
12.8475	0.872
12.8884	0.869
12.9292	0.869
12.9701	0.858
13.0109	0.862
13.0518	0.85
13.0926	0.846
13.1335	0.811
13.1744	0.789
13.2152	0.765
13.2561	0.722
13.2969	0.664
13.3378	0.586
13.3787	0.517
13.4195	0.423
13.4604	0.362
13.5012	0.335
13.5421	0.309
13.5829	0.301
13.6238	0.321
13.6647	0.36
13.7055	0.389
13.7464	0.423
13.7872	0.448
13.8281	0.459
13.869	0.457
13.9098	0.472
13.9507	0.506
13.9915	0.539
14.0324	0.6
14.0733	0.644
14.1141	0.666
14.155	0.683
14.1958	0.702
14.2367	0.698
14.2775	0.695
14.3184	0.681
14.3593	0.673
14.4001	0.654
14.441	0.636
14.4818	0.615
14.5227	0.608
14.5636	0.593
14.6044	0.588
14.6453	0.583
14.6861	0.562
14.727	0.554
14.7678	0.54
14.8087	0.527
14.8496	0.515
14.8904	0.503
14.9313	0.498
14.9721	0.489
15.013	0.476
15.0539	0.464
15.0947	0.455
15.1356	0.452
15.1764	0.452
15.2173	0.448
15.2581	0.448
15.299	0.442
15.3399	0.442
15.3807	0.438
15.4216	0.438
15.4624	0.438
15.5033	0.435
15.5442	0.435
15.585	0.425
15.6259	0.413
15.6667	0.404
15.7076	0.392
15.7484	0.386
15.7893	0.384
15.8302	0.386
15.871	0.384
15.9119	0.382
15.9527	0.377
15.9936	0.372
