Infrared Spectrum: O-NITRO CARBANILIC ACID, n-DECYL ESTER
Formula: C17 H26 N2 O4
CAS: 93814-55-2
State: SOLID (1.6 mg / 100 mg KBr)
Melting point: 51.5-52 C
Class: COBLENTZ
Instrument: Not specified, most likely a grating spectrometer.
Sampling: TRANSMISSION
Resolution: 4
Origin: CITRUS EXPERIMENT STATION, UNIVERSITY OF FLORIDA (G. EDWARDS)
MICROMETERS	TRANSMITTANCE
2.04	0.898
2.07314	0.896
2.10629	0.9
2.13943	0.897
2.17257	0.902
2.20572	0.896
2.23886	0.901
2.27201	0.893
2.30515	0.896
2.33829	0.905
2.37144	0.896
2.40458	0.902
2.43772	0.905
2.47087	0.904
2.50401	0.897
2.53715	0.902
2.5703	0.918
2.60344	0.894
2.63658	0.91
2.66973	0.901
2.70287	0.908
2.73602	0.905
2.76916	0.91
2.8023	0.912
2.83545	0.91
2.86859	0.906
2.90173	0.901
2.93488	0.856
2.96802	0.715
3.00116	0.906
3.03431	0.916
3.06745	0.918
3.10059	0.926
3.13374	0.914
3.16688	0.913
3.20003	0.893
3.23317	0.92
3.26631	0.922
3.29946	0.898
3.3326	0.827
3.36574	0.67
3.39889	0.502
3.43203	0.74
3.46517	0.627
3.49832	0.84
3.53146	0.904
3.56461	0.91
3.59775	0.912
3.63089	0.912
3.66404	0.92
3.69718	0.925
3.73032	0.925
3.76347	0.917
3.79661	0.929
3.82975	0.916
3.8629	0.916
3.89604	0.926
3.92918	0.921
3.96233	0.924
3.99547	0.929
4.02862	0.918
4.06176	0.929
4.0949	0.918
4.12805	0.929
4.16119	0.929
4.19433	0.918
4.22748	0.921
4.26062	0.929
4.29376	0.934
4.32691	0.932
4.36005	0.924
4.39319	0.933
4.42634	0.929
4.45948	0.934
4.49263	0.93
4.52577	0.93
4.55891	0.929
4.59206	0.925
4.6252	0.932
4.65834	0.933
4.69149	0.941
4.72463	0.928
4.75777	0.934
4.79092	0.936
4.82406	0.925
4.8572	0.93
4.89035	0.933
4.92349	0.932
4.95664	0.936
4.98978	0.925
5.02292	0.933
5.05607	0.929
5.08921	0.929
5.12235	0.921
5.1555	0.929
5.18864	0.933
5.22178	0.934
5.25493	0.926
5.28807	0.922
5.32122	0.921
5.35436	0.936
5.3875	0.918
5.42065	0.924
5.45379	0.926
5.48693	0.921
5.52008	0.916
5.55322	0.909
5.58636	0.901
5.61951	0.889
5.65265	0.855
5.68579	0.68
5.71894	0.457
5.75208	0.73
5.78523	0.875
5.81837	0.904
5.85151	0.902
5.88466	0.901
5.9178	0.91
5.95094	0.904
5.98409	0.898
6.01723	0.882
6.05037	0.881
6.08352	0.851
6.11666	0.816
6.1498	0.622
6.18295	0.446
6.21609	0.742
6.24924	0.675
6.28238	0.569
6.31552	0.851
6.34867	0.855
6.38181	0.783
6.41495	0.752
6.4481	0.7
6.48124	0.682
6.51438	0.49
6.54753	0.361
6.58067	0.289
6.61382	0.34
6.64696	0.585
6.6801	0.71
6.71325	0.707
6.74639	0.63
6.77953	0.65
6.81268	0.586
6.84582	0.698
6.87896	0.699
6.91211	0.545
6.94525	0.65
6.97839	0.73
7.01154	0.78
7.04468	0.811
7.07783	0.839
7.11097	0.856
7.14411	0.839
7.17726	0.78
7.2104	0.804
7.24354	0.831
7.27669	0.831
7.30983	0.811
7.34297	0.779
7.37612	0.702
7.40926	0.461
7.4424	0.152
7.47555	0.351
7.50869	0.634
7.54184	0.603
7.57498	0.672
7.60812	0.636
7.64127	0.682
7.67441	0.68
7.70755	0.686
7.7407	0.691
7.77384	0.702
7.80698	0.723
7.84013	0.759
7.87327	0.78
7.90641	0.765
7.93956	0.711
7.9727	0.527
8.00585	0.267
8.03899	0.277
8.07213	0.23
8.10528	0.469
8.13842	0.655
8.17156	0.74
8.20471	0.744
8.23785	0.716
8.27099	0.581
8.30414	0.361
8.33728	0.425
8.37043	0.626
8.40357	0.699
8.43671	0.769
8.46986	0.763
8.503	0.785
8.53614	0.785
8.56929	0.817
8.60243	0.84
8.63557	0.813
8.66872	0.783
8.70186	0.848
8.735	0.881
8.76815	0.882
8.80129	0.877
8.83444	0.877
8.86758	0.877
8.90072	0.873
8.93387	0.869
8.96701	0.868
9.00015	0.86
9.0333	0.824
9.06644	0.748
9.09958	0.639
9.13273	0.724
9.16587	0.76
9.19901	0.817
9.23216	0.853
9.2653	0.859
9.29845	0.856
9.33159	0.827
9.36473	0.777
9.39788	0.739
9.43102	0.648
9.46416	0.582
9.49731	0.61
9.53045	0.715
9.56359	0.731
9.59674	0.675
9.62988	0.74
9.66303	0.821
9.69617	0.845
9.72931	0.856
9.76246	0.844
9.7956	0.847
9.82874	0.873
9.86189	0.871
9.89503	0.868
9.92817	0.855
9.96132	0.877
9.99446	0.888
10.0276	0.893
10.0607	0.904
10.0939	0.912
10.127	0.91
10.1602	0.908
10.1933	0.906
10.2265	0.894
10.2596	0.885
10.2928	0.871
10.3259	0.845
10.359	0.855
10.3922	0.889
10.4253	0.904
10.4585	0.906
10.4916	0.916
10.5248	0.91
10.5579	0.918
10.591	0.912
10.6242	0.917
10.6573	0.913
10.6905	0.917
10.7236	0.914
10.7568	0.918
10.7899	0.913
10.8231	0.914
10.8562	0.925
10.8893	0.913
10.9225	0.912
10.9556	0.92
10.9888	0.917
11.0219	0.917
11.0551	0.917
11.0882	0.92
11.1213	0.92
11.1545	0.913
11.1876	0.91
11.2208	0.914
11.2539	0.909
11.2871	0.916
11.3202	0.914
11.3533	0.913
11.3865	0.909
11.4196	0.886
11.4528	0.853
11.4859	0.757
11.5191	0.712
11.5522	0.841
11.5854	0.875
11.6185	0.894
11.6516	0.898
11.6848	0.893
11.7179	0.882
11.7511	0.868
11.7842	0.882
11.8174	0.872
11.8505	0.856
11.8836	0.841
11.9168	0.855
11.9499	0.872
11.9831	0.885
12.0162	0.906
12.0494	0.906
12.0825	0.913
12.1157	0.912
12.1488	0.918
12.1819	0.912
12.2151	0.918
12.2482	0.918
12.2814	0.91
12.3145	0.918
12.3477	0.91
12.3808	0.918
12.4139	0.904
12.4471	0.913
12.4802	0.906
12.5134	0.897
12.5465	0.886
12.5797	0.881
12.6128	0.855
12.6459	0.764
12.6791	0.646
12.7122	0.7
12.7454	0.82
12.7785	0.863
12.8117	0.885
12.8448	0.882
12.878	0.889
12.9111	0.873
12.9442	0.839
12.9774	0.784
13.0105	0.761
13.0437	0.819
13.0768	0.832
13.11	0.832
13.1431	0.788
13.1762	0.797
13.2094	0.852
13.2425	0.873
13.2757	0.872
13.3088	0.864
13.342	0.835
13.3751	0.757
13.4083	0.562
13.4414	0.446
13.4745	0.551
13.5077	0.694
13.5408	0.792
13.574	0.837
13.6071	0.848
13.6403	0.865
13.6734	0.867
13.7065	0.867
13.7397	0.859
13.7728	0.864
13.806	0.855
13.8391	0.844
13.8723	0.807
13.9054	0.784
13.9385	0.815
13.9717	0.844
14.0048	0.861
14.038	0.871
14.0711	0.859
14.1043	0.852
14.1374	0.864
14.1706	0.853
14.2037	0.864
14.2368	0.864
14.27	0.853
14.3031	0.843
14.3363	0.829
14.3694	0.82
14.4026	0.812
14.4357	0.797
14.4688	0.792
14.502	0.783
14.5351	0.777
14.5683	0.773
14.6014	0.767
14.6346	0.755
14.6677	0.744
14.7009	0.732
14.734	0.736
14.7671	0.751
14.8003	0.748
14.8334	0.748
14.8666	0.744
14.8997	0.722
14.9329	0.712
14.966	0.734
14.9991	0.743
