Infrared Spectrum: P-NITRO CARBANILIC ACID, n-DECYL ESTER
Formula: C17 H26 N2 O4
CAS: 93814-57-4
State: SOLID (1.8 mg / 100 mg KBr)
Melting point: 116 C
Class: COBLENTZ
Instrument: Not specified, most likely a grating spectrometer.
Sampling: TRANSMISSION
Resolution: 4
Origin: CITRUS EXPERIMENT STATION, UNIVERSITY OF FLORIDA (G. EDWARDS)
MICROMETERS	TRANSMITTANCE
2.046	0.779
2.07918	0.779
2.11235	0.779
2.14553	0.779
2.1787	0.779
2.21188	0.779
2.24506	0.779
2.27823	0.779
2.31141	0.779
2.34458	0.781
2.37776	0.781
2.41094	0.781
2.44411	0.781
2.47729	0.782
2.51047	0.782
2.54364	0.782
2.57682	0.782
2.60999	0.782
2.64317	0.782
2.67635	0.781
2.70952	0.781
2.7427	0.781
2.77587	0.779
2.80905	0.777
2.84223	0.773
2.8754	0.77
2.90858	0.757
2.94175	0.421
2.97493	0.722
3.00811	0.777
3.04128	0.785
3.07446	0.787
3.10763	0.787
3.14081	0.786
3.17399	0.779
3.20716	0.777
3.24034	0.777
3.27352	0.777
3.30669	0.769
3.33987	0.738
3.37304	0.558
3.40622	0.424
3.4394	0.644
3.47257	0.602
3.50575	0.716
3.53892	0.778
3.5721	0.79
3.60528	0.793
3.63845	0.795
3.67163	0.797
3.7048	0.799
3.73798	0.802
3.77116	0.802
3.80433	0.803
3.83751	0.805
3.87068	0.806
3.90386	0.806
3.93704	0.806
3.97021	0.806
4.00339	0.807
4.03656	0.807
4.06974	0.807
4.10292	0.81
4.13609	0.818
4.16927	0.819
4.20245	0.825
4.23562	0.826
4.2688	0.826
4.30197	0.826
4.33515	0.827
4.36833	0.827
4.4015	0.827
4.43468	0.827
4.46785	0.827
4.50103	0.827
4.53421	0.827
4.56738	0.827
4.60056	0.831
4.63373	0.833
4.66691	0.833
4.70009	0.833
4.73326	0.833
4.76644	0.833
4.79961	0.833
4.83279	0.833
4.86597	0.833
4.89914	0.833
4.93232	0.833
4.9655	0.833
4.99867	0.833
5.03185	0.833
5.06502	0.833
5.0982	0.833
5.13138	0.831
5.16455	0.831
5.19773	0.834
5.2309	0.834
5.26408	0.831
5.29726	0.831
5.33043	0.831
5.36361	0.83
5.39678	0.829
5.42996	0.827
5.46314	0.817
5.49631	0.813
5.52949	0.811
5.56266	0.811
5.59584	0.813
5.62902	0.811
5.66219	0.79
5.69537	0.719
5.72855	0.493
5.76172	0.606
5.7949	0.695
5.82807	0.809
5.86125	0.815
5.89443	0.817
5.9276	0.815
5.96078	0.817
5.99395	0.813
6.02713	0.803
6.06031	0.799
6.09348	0.79
6.12666	0.783
6.15983	0.716
6.19301	0.495
6.22619	0.536
6.25936	0.459
6.29254	0.706
6.32571	0.72
6.35889	0.686
6.39207	0.511
6.42524	0.297
6.45842	0.405
6.49159	0.563
6.52477	0.61
6.55795	0.421
6.59112	0.436
6.6243	0.594
6.65748	0.58
6.69065	0.647
6.72383	0.714
6.757	0.642
6.79018	0.707
6.82336	0.766
6.85653	0.791
6.88971	0.801
6.92288	0.802
6.95606	0.809
6.98924	0.801
7.02241	0.744
7.05559	0.688
7.08876	0.783
7.12194	0.785
7.15512	0.766
7.18829	0.735
7.22147	0.735
7.25464	0.738
7.28782	0.74
7.321	0.723
7.35417	0.692
7.38735	0.528
7.42053	0.335
7.4537	0.252
7.48688	0.16
7.52005	0.22
7.55323	0.299
7.58641	0.471
7.61958	0.403
7.65276	0.58
7.68593	0.655
7.71911	0.71
7.75229	0.73
7.78546	0.723
7.81864	0.722
7.85181	0.71
7.88499	0.668
7.91817	0.691
7.95134	0.731
7.98452	0.71
8.01769	0.627
8.05087	0.61
8.08405	0.532
8.11722	0.388
8.1504	0.197
8.18358	0.101
8.21675	0.141
8.24993	0.289
8.2831	0.399
8.31628	0.536
8.34946	0.56
8.38263	0.603
8.41581	0.599
8.44898	0.598
8.48216	0.616
8.51534	0.674
8.54851	0.74
8.58169	0.762
8.61486	0.781
8.64804	0.79
8.68122	0.801
8.71439	0.801
8.74757	0.801
8.78074	0.795
8.81392	0.775
8.8471	0.73
8.88027	0.74
8.91345	0.781
8.94662	0.75
8.9798	0.579
9.01298	0.496
9.04615	0.602
9.07933	0.663
9.11251	0.643
9.14568	0.671
9.17886	0.735
9.21203	0.785
9.24521	0.79
9.27839	0.789
9.31156	0.783
9.34474	0.765
9.37791	0.726
9.41109	0.654
9.44427	0.583
9.47744	0.56
9.51062	0.612
9.54379	0.674
9.57697	0.712
9.61015	0.724
9.64332	0.782
9.6765	0.803
9.70967	0.814
9.74285	0.819
9.77603	0.818
9.8092	0.821
9.84238	0.826
9.87556	0.823
9.90873	0.815
9.94191	0.806
9.97508	0.815
10.0083	0.83
10.0414	0.841
10.0746	0.845
10.1078	0.849
10.141	0.849
10.1741	0.847
10.2073	0.846
10.2405	0.843
10.2737	0.841
10.3068	0.831
10.34	0.818
10.3732	0.825
10.4064	0.837
10.4395	0.846
10.4727	0.859
10.5059	0.862
10.5391	0.865
10.5723	0.865
10.6054	0.865
10.6386	0.865
10.6718	0.866
10.705	0.867
10.7381	0.867
10.7713	0.867
10.8045	0.867
10.8377	0.867
10.8708	0.869
10.904	0.87
10.9372	0.87
10.9704	0.869
11.0035	0.869
11.0367	0.869
11.0699	0.87
11.1031	0.87
11.1362	0.869
11.1694	0.867
11.2026	0.867
11.2358	0.867
11.269	0.867
11.3021	0.87
11.3353	0.87
11.3685	0.867
11.4017	0.858
11.4348	0.817
11.468	0.726
11.5012	0.722
11.5344	0.809
11.5675	0.825
11.6007	0.818
11.6339	0.77
11.6671	0.611
11.7002	0.443
11.7334	0.467
11.7666	0.64
11.7998	0.747
11.8329	0.81
11.8661	0.822
11.8993	0.817
11.9325	0.802
11.9656	0.799
11.9988	0.807
12.032	0.833
12.0652	0.841
12.0984	0.842
12.1315	0.842
12.1647	0.857
12.1979	0.862
12.2311	0.865
12.2642	0.867
12.2974	0.869
12.3306	0.87
12.3638	0.87
12.3969	0.871
12.4301	0.87
12.4633	0.871
12.4965	0.869
12.5296	0.866
12.5628	0.866
12.596	0.865
12.6292	0.865
12.6623	0.863
12.6955	0.863
12.7287	0.863
12.7619	0.862
12.7951	0.862
12.8282	0.861
12.8614	0.854
12.8946	0.843
12.9278	0.813
12.9609	0.747
12.9941	0.656
13.0273	0.691
13.0605	0.732
13.0936	0.742
13.1268	0.74
13.16	0.728
13.1932	0.748
13.2263	0.814
13.2595	0.819
13.2927	0.798
13.3259	0.73
13.359	0.548
13.3922	0.623
13.4254	0.746
13.4586	0.798
13.4917	0.802
13.5249	0.811
13.5581	0.835
13.5913	0.846
13.6245	0.847
13.6576	0.849
13.6908	0.846
13.724	0.843
13.7572	0.838
13.7903	0.831
13.8235	0.822
13.8567	0.797
13.8899	0.763
13.923	0.757
13.9562	0.785
13.9894	0.819
14.0226	0.835
14.0557	0.837
14.0889	0.837
14.1221	0.835
14.1553	0.835
14.1884	0.833
14.2216	0.831
14.2548	0.827
14.288	0.818
14.3212	0.803
14.3543	0.783
14.3875	0.75
14.4207	0.718
14.4539	0.694
14.487	0.695
14.5202	0.71
14.5534	0.723
14.5866	0.757
14.6197	0.769
14.6529	0.769
14.6861	0.769
14.7193	0.769
14.7524	0.767
14.7856	0.763
14.8188	0.754
14.852	0.743
14.8851	0.719
14.9183	0.696
14.9515	0.684
14.9847	0.703
15.0178	0.748
15.051	0.762
15.0842	0.762
