Infrared Spectrum: O-NITRO CARBANILIC ACID, TETRAHYDROLINALYL ESTER
Formula: C17 H26 N2 O4
CAS: 93814-56-3
Class: COBLENTZ
Instrument: Not specified, most likely a grating spectrometer.
Sampling: TRANSMISSION
Path length: CAPILLARY
Resolution: 4
Origin: CITRUS EXPERIMENT STATION, UNIVERSITY OF FLORIDA (G. EDWARDS)
MICROMETERS	TRANSMITTANCE
2.066	0.889
2.09921	0.888
2.13242	0.886
2.16562	0.884
2.19883	0.873
2.23204	0.872
2.26525	0.876
2.29845	0.878
2.33166	0.876
2.36487	0.877
2.39808	0.878
2.43128	0.881
2.46449	0.886
2.4977	0.889
2.53091	0.889
2.56412	0.889
2.59732	0.889
2.63053	0.886
2.66374	0.885
2.69695	0.882
2.73015	0.884
2.76336	0.881
2.79657	0.881
2.82978	0.87
2.86298	0.856
2.89619	0.821
2.9294	0.557
2.96261	0.638
2.99581	0.816
3.02902	0.861
3.06223	0.865
3.09544	0.86
3.12865	0.856
3.16185	0.84
3.19506	0.814
3.22827	0.821
3.26148	0.817
3.29468	0.776
3.32789	0.408
3.3611	0.274
3.39431	0.396
3.42751	0.497
3.46072	0.517
3.49393	0.712
3.52714	0.821
3.56035	0.84
3.59355	0.852
3.62676	0.854
3.65997	0.869
3.69318	0.869
3.72638	0.868
3.75959	0.868
3.7928	0.866
3.82601	0.868
3.85921	0.872
3.89242	0.877
3.92563	0.881
3.95884	0.878
3.99205	0.876
4.02525	0.876
4.05846	0.878
4.09167	0.872
4.12488	0.87
4.15808	0.872
4.19129	0.869
4.2245	0.87
4.25771	0.872
4.29091	0.877
4.32412	0.877
4.35733	0.876
4.39054	0.876
4.42374	0.872
4.45695	0.872
4.49016	0.88
4.52337	0.882
4.55658	0.882
4.58978	0.884
4.62299	0.886
4.6562	0.886
4.68941	0.886
4.72261	0.889
4.75582	0.889
4.78903	0.889
4.82224	0.888
4.85544	0.889
4.88865	0.888
4.92186	0.889
4.95507	0.889
4.98828	0.885
5.02148	0.88
5.05469	0.873
5.0879	0.874
5.12111	0.876
5.15431	0.877
5.18752	0.88
5.22073	0.877
5.25394	0.878
5.28714	0.878
5.32035	0.872
5.35356	0.865
5.38677	0.857
5.41997	0.85
5.45318	0.829
5.48639	0.828
5.5196	0.833
5.55281	0.826
5.58601	0.818
5.61922	0.788
5.65243	0.724
5.68564	0.47
5.71884	0.106
5.75205	0.142
5.78526	0.377
5.81847	0.698
5.85167	0.772
5.88488	0.789
5.91809	0.802
5.9513	0.802
5.98451	0.8
6.01771	0.788
6.05092	0.761
6.08413	0.742
6.11734	0.692
6.15054	0.502
6.18375	0.16
6.21696	0.364
6.25017	0.538
6.28337	0.181
6.31658	0.118
6.34979	0.612
6.383	0.661
6.41621	0.616
6.44941	0.529
6.48262	0.476
6.51583	0.314
6.54904	0.117
6.58224	0.03
6.61545	0.026
6.64866	0.07
6.68187	0.261
6.71507	0.473
6.74828	0.5
6.78149	0.333
6.8147	0.224
6.8479	0.158
6.88111	0.22
6.91432	0.229
6.94753	0.116
6.98074	0.1
7.01394	0.221
7.04715	0.369
7.08036	0.449
7.11357	0.509
7.14677	0.513
7.17998	0.482
7.21319	0.36
7.2464	0.386
7.2796	0.474
7.31281	0.481
7.34602	0.469
7.37923	0.298
7.41244	0.094
7.44564	0.058
7.47885	0.129
7.51206	0.356
7.54527	0.369
7.57847	0.277
7.61168	0.361
7.64489	0.392
7.6781	0.414
7.7113	0.401
7.74451	0.345
7.77772	0.276
7.81093	0.218
7.84414	0.249
7.87734	0.31
7.91055	0.32
7.94376	0.265
7.97697	0.126
8.01017	0.037
8.04338	0.04
8.07659	0.109
8.1098	0.269
8.143	0.39
8.17621	0.409
8.20942	0.334
8.24263	0.261
8.27583	0.168
8.30904	0.124
8.34225	0.113
8.37546	0.124
8.40867	0.198
8.44187	0.281
8.47508	0.354
8.50829	0.392
8.5415	0.396
8.5747	0.356
8.60791	0.3
8.64112	0.281
8.67433	0.212
8.70753	0.129
8.74074	0.124
8.77395	0.146
8.80716	0.152
8.84037	0.221
8.87357	0.321
8.90678	0.337
8.93999	0.326
8.9732	0.34
9.0064	0.405
9.03961	0.509
9.07282	0.557
9.10603	0.55
9.13923	0.508
9.17244	0.425
9.20565	0.332
9.23886	0.398
9.27206	0.528
9.30527	0.629
9.33848	0.664
9.37169	0.65
9.4049	0.59
9.4381	0.565
9.47131	0.566
9.50452	0.564
9.53773	0.549
9.57093	0.477
9.60414	0.394
9.63735	0.317
9.67056	0.372
9.70376	0.486
9.73697	0.589
9.77018	0.649
9.80339	0.685
9.8366	0.705
9.8698	0.729
9.90301	0.74
9.93622	0.74
9.96943	0.728
10.0026	0.718
10.0358	0.72
10.069	0.732
10.1023	0.76
10.1355	0.769
10.1687	0.773
10.2019	0.774
10.2351	0.77
10.2683	0.757
10.3015	0.752
10.3347	0.76
10.3679	0.777
10.4011	0.781
10.4343	0.778
10.4675	0.772
10.5007	0.778
10.534	0.798
10.5672	0.814
10.6004	0.817
10.6336	0.812
10.6668	0.818
10.7	0.824
10.7332	0.824
10.7664	0.81
10.7996	0.801
10.8328	0.789
10.866	0.778
10.8992	0.78
10.9324	0.788
10.9657	0.792
10.9989	0.79
11.0321	0.778
11.0653	0.74
11.0985	0.705
11.1317	0.657
11.1649	0.641
11.1981	0.656
11.2313	0.684
11.2645	0.738
11.2977	0.784
11.3309	0.816
11.3641	0.826
11.3974	0.821
11.4306	0.8
11.4638	0.753
11.497	0.665
11.5302	0.566
11.5634	0.434
11.5966	0.42
11.6298	0.532
11.663	0.64
11.6962	0.678
11.7294	0.686
11.7626	0.689
11.7958	0.693
11.8291	0.704
11.8623	0.713
11.8955	0.724
11.9287	0.725
11.9619	0.718
11.9951	0.708
12.0283	0.68
12.0615	0.653
12.0947	0.645
12.1279	0.652
12.1611	0.674
12.1943	0.698
12.2275	0.724
12.2608	0.733
12.294	0.732
12.3272	0.729
12.3604	0.722
12.3936	0.722
12.4268	0.722
12.46	0.724
12.4932	0.725
12.5264	0.725
12.5596	0.72
12.5928	0.708
12.626	0.678
12.6592	0.642
12.6925	0.584
12.7257	0.517
12.7589	0.441
12.7921	0.41
12.8253	0.453
12.8585	0.532
12.8917	0.608
12.9249	0.633
12.9581	0.63
12.9913	0.608
13.0245	0.573
13.0577	0.557
13.0909	0.558
13.1242	0.58
13.1574	0.597
13.1906	0.613
13.2238	0.622
13.257	0.62
13.2902	0.604
13.3234	0.574
13.3566	0.51
13.3898	0.425
13.423	0.285
13.4562	0.202
13.4894	0.165
13.5226	0.177
13.5559	0.236
13.5891	0.34
13.6223	0.453
13.6555	0.525
13.6887	0.585
13.7219	0.625
13.7551	0.649
13.7883	0.665
13.8215	0.678
13.8547	0.689
13.8879	0.696
13.9211	0.701
13.9543	0.702
13.9876	0.702
14.0208	0.701
14.054	0.698
14.0872	0.696
14.1204	0.689
14.1536	0.685
14.1868	0.678
14.22	0.67
14.2532	0.665
14.2864	0.65
14.3196	0.641
14.3528	0.629
14.386	0.609
14.4193	0.578
14.4525	0.546
14.4857	0.506
14.5189	0.486
14.5521	0.49
14.5853	0.502
14.6185	0.52
14.6517	0.517
14.6849	0.512
14.7181	0.501
14.7513	0.492
14.7845	0.478
14.8177	0.461
14.851	0.446
14.8842	0.44
14.9174	0.434
14.9506	0.434
14.9838	0.434
15.017	0.433
15.0502	0.432
