Infrared Spectrum: Alpha,Alpha'-DIACETYL-N,N'-DI-n-BUTYL GLUTARAMIDE
Formula: C17 H30 N2 O4
CAS: 93812-81-8
State: SOLID (KBr PRESSING)
Melting point: 138-139 C
Class: COBLENTZ
Instrument: Not specified, most likely a prism, grating, or hybrid spectrometer.
Sampling: TRANSMISSION
Resolution: 4
Origin: EASTMAN KODAK COMPANY, RESEARCH LABORATORIES, ROCHESTER, N.Y.
MICROMETERS	TRANSMITTANCE
2	0.782
2.03989	0.785
2.07977	0.788
2.11966	0.778
2.15954	0.8
2.19943	0.785
2.23931	0.79
2.2792	0.801
2.31908	0.795
2.35897	0.79
2.39886	0.801
2.43874	0.79
2.47863	0.811
2.51851	0.803
2.5584	0.801
2.59828	0.813
2.63817	0.808
2.67806	0.823
2.71794	0.82
2.75783	0.801
2.79771	0.775
2.8376	0.726
2.87748	0.712
2.91737	0.673
2.95725	0.665
2.99714	0.518
3.03703	0.161
3.07691	0.143
3.1168	0.483
3.15668	0.651
3.19657	0.711
3.23645	0.636
3.27634	0.57
3.31622	0.755
3.35611	0.691
3.396	0.29
3.43588	0.381
3.47577	0.603
3.51565	0.602
3.55554	0.782
3.59542	0.805
3.63531	0.836
3.67519	0.836
3.71508	0.851
3.75497	0.853
3.79485	0.882
3.83474	0.864
3.87462	0.863
3.91451	0.881
3.95439	0.872
3.99428	0.877
4.03417	0.864
4.07405	0.891
4.11394	0.891
4.15382	0.876
4.19371	0.894
4.23359	0.9
4.27348	0.891
4.31336	0.877
4.35325	0.902
4.39314	0.884
4.43302	0.892
4.47291	0.894
4.51279	0.902
4.55268	0.887
4.59256	0.892
4.63245	0.894
4.67233	0.902
4.71222	0.886
4.75211	0.899
4.79199	0.891
4.83188	0.905
4.87176	0.896
4.91165	0.889
4.95153	0.902
4.99142	0.894
5.0313	0.902
5.07119	0.891
5.11108	0.894
5.15096	0.904
5.19085	0.904
5.23073	0.912
5.27062	0.909
5.3105	0.902
5.35039	0.896
5.39028	0.877
5.43016	0.894
5.47005	0.896
5.50993	0.887
5.54982	0.869
5.5897	0.869
5.62959	0.849
5.66947	0.843
5.70936	0.783
5.74925	0.732
5.78913	0.613
5.82902	0.001
5.8689	0.155
5.90879	0.537
5.94867	0.669
5.98856	0.612
6.02844	0.372
6.06833	0.07
6.10822	0.033
6.1481	0.198
6.18799	0.462
6.22787	0.6
6.26776	0.673
6.30764	0.613
6.34753	0.422
6.38741	0.196
6.4273	0.176
6.46719	0.282
6.50707	0.377
6.54696	0.521
6.58684	0.574
6.62673	0.665
6.66661	0.681
6.7065	0.696
6.74639	0.689
6.78627	0.681
6.82616	0.613
6.86604	0.524
6.90593	0.503
6.94581	0.455
6.9857	0.481
7.02558	0.473
7.06547	0.516
7.10536	0.622
7.14524	0.674
7.18513	0.676
7.22501	0.686
7.2649	0.594
7.30478	0.501
7.34467	0.381
7.38455	0.303
7.42444	0.381
7.46433	0.503
7.50421	0.582
7.5441	0.653
7.58398	0.666
7.62387	0.567
7.66375	0.453
7.70364	0.417
7.74353	0.498
7.78341	0.589
7.8233	0.676
7.86318	0.721
7.90307	0.722
7.94295	0.658
7.98284	0.651
8.02272	0.599
8.06261	0.376
8.1025	0.404
8.14238	0.471
8.18227	0.569
8.22215	0.714
8.26204	0.805
8.30192	0.833
8.34181	0.846
8.38169	0.851
8.42158	0.839
8.46147	0.792
8.50135	0.681
8.54124	0.594
8.58112	0.658
8.62101	0.686
8.66089	0.539
8.70078	0.354
8.74066	0.552
8.78055	0.706
8.82044	0.806
8.86032	0.846
8.90021	0.853
8.94009	0.854
8.97998	0.83
9.01986	0.859
9.05975	0.876
9.09964	0.879
9.13952	0.886
9.17941	0.889
9.21929	0.905
9.25918	0.912
9.29906	0.897
9.33895	0.866
9.37883	0.867
9.41872	0.866
9.45861	0.882
9.49849	0.891
9.53838	0.864
9.57826	0.793
9.61815	0.724
9.65803	0.805
9.69792	0.833
9.7378	0.853
9.77769	0.874
9.81758	0.867
9.85746	0.853
9.89735	0.8
9.93723	0.788
9.97712	0.813
10.017	0.853
10.0569	0.859
10.0968	0.876
10.1367	0.874
10.1765	0.869
10.2164	0.839
10.2563	0.806
10.2962	0.788
10.3361	0.772
10.376	0.749
10.4159	0.767
10.4557	0.783
10.4956	0.801
10.5355	0.793
10.5754	0.811
10.6153	0.844
10.6552	0.839
10.6951	0.851
10.7349	0.882
10.7748	0.912
10.8147	0.942
10.8546	0.933
10.8945	0.937
10.9344	0.925
10.9743	0.952
11.0141	0.917
11.054	0.912
11.0939	0.904
11.1338	0.902
11.1737	0.912
11.2136	0.904
11.2535	0.93
11.2933	0.932
11.3332	0.927
11.3731	0.933
11.413	0.915
11.4529	0.902
11.4928	0.864
11.5327	0.81
11.5725	0.816
11.6124	0.843
11.6523	0.866
11.6922	0.894
11.7321	0.904
11.772	0.93
11.8119	0.94
11.8517	0.94
11.8916	0.945
11.9315	0.942
11.9714	0.942
12.0113	0.932
12.0512	0.933
12.0911	0.933
12.1309	0.922
12.1708	0.933
12.2107	0.909
12.2506	0.915
12.2905	0.907
12.3304	0.905
12.3703	0.892
12.4101	0.887
12.45	0.897
12.4899	0.905
12.5298	0.904
12.5697	0.922
12.6096	0.9
12.6495	0.894
12.6893	0.894
12.7292	0.892
12.7691	0.884
12.809	0.877
12.8489	0.877
12.8888	0.849
12.9287	0.863
12.9685	0.834
13.0084	0.834
13.0483	0.825
13.0882	0.811
13.1281	0.803
13.168	0.792
13.2079	0.775
13.2477	0.752
13.2876	0.732
13.3275	0.732
13.3674	0.711
13.4073	0.701
13.4472	0.712
13.4871	0.744
13.5269	0.778
13.5668	0.792
13.6067	0.825
13.6466	0.841
13.6865	0.848
13.7264	0.861
13.7662	0.859
13.8061	0.874
13.846	0.854
13.8859	0.861
13.9258	0.854
13.9657	0.841
14.0056	0.843
14.0454	0.831
14.0853	0.838
14.1252	0.831
14.1651	0.816
14.205	0.808
14.2449	0.803
14.2848	0.795
14.3246	0.768
14.3645	0.735
14.4044	0.729
14.4443	0.716
14.4842	0.684
14.5241	0.676
14.564	0.645
14.6038	0.635
14.6437	0.622
14.6836	0.63
14.7235	0.63
14.7634	0.632
14.8033	0.645
14.8432	0.66
14.883	0.671
14.9229	0.673
14.9628	0.691
15.0027	0.704
15.0426	0.742
15.0825	0.762
15.1224	0.754
15.1622	0.76
15.2021	0.778
15.242	0.793
15.2819	0.788
15.3218	0.793
15.3617	0.795
15.4016	0.8
15.4414	0.811
15.4813	0.815
15.5212	0.825
15.5611	0.81
15.601	0.816
15.6409	0.806
15.6808	0.81
15.7206	0.805
15.7605	0.81
15.8004	0.816
15.8403	0.82
