Infrared Spectrum: 3,4-Dimethyl-3-cyclohexenylmethanal
Formula: C 9 H 14 O
CAS: 93861-86-0
State: gas
Instrument: HP-GC/MS/IRD
Origin: NIST Mass Spectrometry Data Center
1/CM	ABSORBANCE
550	0.0002047
562	7.36e-05
574	9.43e-05
586	0.0001518
598	3.68e-05
610	0.00023
622	0.0002944
634	0.0003772
646	0.0004393
658	0.0004692
670	0.0004508
682	0.0003565
694	0.0005106
706	0.0006256
718	0.0005359
730	0.0004186
742	0.0003197
754	0.0003519
766	0.0003864
778	0.000598
790	0.0009361
802	0.0008832
814	0.0006302
826	0.0004462
838	0.0003611
850	0.0003588
862	0.0003864
874	0.0003496
886	0.0004209
898	0.0005336
910	0.0009361
922	0.0012282
934	0.0010971
946	0.0009683
958	0.0007682
970	0.0007636
982	0.0009269
994	0.000943
1006	0.0011362
1018	0.0014007
1030	0.0014122
1042	0.0011546
1054	0.0009085
1066	0.0007682
1078	0.0008395
1090	0.000989
1102	0.000966
1114	0.0010235
1126	0.0012903
1138	0.0015226
1150	0.0010787
1162	0.0006831
1174	0.0005221
1186	0.0004324
1198	0.0004347
1210	0.000598
1222	0.0007797
1234	0.0007797
1246	0.000644
1258	0.0005865
1270	0.0006831
1282	0.0007475
1294	0.0006992
1306	0.0006371
1318	0.0006578
1330	0.0008211
1342	0.0010028
1354	0.0011753
1366	0.0013018
1378	0.0017687
1390	0.0021896
1402	0.0014398
1414	0.0009798
1426	0.001426
1438	0.0025484
1450	0.0030015
1462	0.0022172
1474	0.001173
1486	0.0006831
1498	0.0005589
1510	0.0005336
1522	0.0005888
1534	0.0006371
1546	0.0006118
1558	0.0005566
1570	0.0004692
1582	0.0003841
1594	0.0003059
1606	0.0002921
1618	0.0003082
1630	0.000322
1642	0.000414
1654	0.0005566
1666	0.0008303
1678	0.0012903
1690	0.0019757
1702	0.0028612
1714	0.0046092
1726	0.011109
1738	0.022517
1750	0.0167578
1762	0.0053153
1774	0.0027968
1786	0.0018883
1798	0.0011753
1810	0.0007153
1822	0.0004761
1834	0.0003473
1846	0.0002622
1858	0.0002139
1870	0.0001794
1882	0.0001633
1894	0.0001449
1906	0.0001403
1918	0.0001173
1930	0.0001288
1942	9.89e-05
1954	0.0001058
1966	7.59e-05
1978	8.51e-05
1990	6.44e-05
2002	6.9e-05
2014	7.82e-05
2026	6.44e-05
2038	5.98e-05
2050	6.67e-05
2062	6.67e-05
2074	7.13e-05
2086	7.59e-05
2098	4.37e-05
2110	5.52e-05
2122	4.6e-05
2134	5.52e-05
2146	2.99e-05
2158	4.83e-05
2170	3.22e-05
2182	3.45e-05
2194	2.3e-05
2206	1.38e-05
2218	3.22e-05
2230	2.53e-05
2242	2.3e-05
2254	2.76e-05
2266	5.06e-05
2278	3.91e-05
2290	3.45e-05
2302	4.37e-05
2314	3.68e-05
2326	3.45e-05
2338	4.83e-05
2350	8.28e-05
2362	8.97e-05
2374	7.36e-05
2386	6.9e-05
2398	6.67e-05
2410	6.44e-05
2422	8.28e-05
2434	8.28e-05
2446	0.0001035
2458	0.0001058
2470	0.0001472
2482	0.0001311
2494	0.0001518
2506	0.0001656
2518	0.0001794
2530	0.0001679
2542	0.0001909
2554	0.0001886
2566	0.0002139
2578	0.0002645
2590	0.0003243
2602	0.0004439
2614	0.0005819
2626	0.0007797
2638	0.0010235
2650	0.0014237
2662	0.0020263
2674	0.0029463
2686	0.0048024
2698	0.0068149
2710	0.0061157
2722	0.004278
2734	0.0033166
2746	0.0028658
2758	0.0025392
2770	0.0024518
2782	0.0029969
2794	0.0044459
2806	0.0050393
2818	0.0043585
2830	0.0060467
2842	0.0094898
2854	0.0104489
2866	0.0116702
2878	0.0132319
2890	0.0138989
2902	0.0150581
2914	0.0183977
2926	0.0204746
2938	0.0165692
2950	0.0094415
2962	0.0049105
2974	0.0032016
2986	0.003565
2998	0.0043516
3010	0.0039123
3022	0.0031625
3034	0.0026358
3046	0.001978
3058	0.0013133
3070	0.0008832
3082	0.0006624
3094	0.0005428
3106	0.0004347
3118	0.0004186
3130	0.0004071
3142	0.0002944
3154	0.000253
3166	0.0002461
3178	0.0002024
3190	0.0001863
3202	0.0001886
3214	0.000138
3226	0.0001288
3238	0.0001265
3250	9.89e-05
3262	9.2e-05
3274	0.0001242
3286	0.0001449
3298	7.82e-05
3310	0.0001012
3322	8.74e-05
3334	0.0001127
3346	8.97e-05
3358	9.89e-05
3370	0.000115
3382	0.0001288
3394	0.0001311
3406	0.0001679
3418	0.0001932
3430	0.0002622
3442	0.0003174
3454	0.0004807
3466	0.000437
3478	0.0003174
3490	0.0002208
3502	0.000207
3514	0.000138
3526	0.0001127
3538	9.43e-05
3550	9.2e-05
3562	8.05e-05
3574	7.82e-05
3586	7.59e-05
3598	0.0001058
3610	9.43e-05
3622	8.74e-05
3634	8.74e-05
3646	5.98e-05
3658	5.52e-05
3670	4.14e-05
3682	7.36e-05
3694	6.44e-05
3706	0.0001196
3718	7.13e-05
3730	0.0001035
3742	0.0001058
3754	0.0001357
3766	0.0001518
3778	0.0001288
3790	0.0001173
3802	8.97e-05
3814	0.000161
3826	0.0001288
3838	0.0001702
