Infrared Spectrum: M-NITRO CARBANILIC ACID, n-HEPTYL ESTER
Formula: C14 H20 N2 O4
CAS: 93896-50-5
State: SOLID (1.8 mg / 200 mg KBr)
Class: COBLENTZ
Instrument: Not specified, most likely a grating spectrometer.
Sampling: TRANSMISSION
Resolution: 4
Origin: CITRUS EXPERIMENT STATION, UNIVERSITY OF FLORIDA (G. EDWARDS)
MICROMETERS	TRANSMITTANCE
2.04	0.483
2.07313	0.488
2.10626	0.492
2.13938	0.492
2.17251	0.504
2.20564	0.509
2.23877	0.512
2.2719	0.515
2.30503	0.517
2.33815	0.521
2.37128	0.529
2.40441	0.535
2.43754	0.543
2.47067	0.547
2.50379	0.553
2.53692	0.563
2.57005	0.565
2.60318	0.567
2.63631	0.565
2.66943	0.567
2.70256	0.575
2.73569	0.575
2.76882	0.573
2.80195	0.567
2.83508	0.56
2.8682	0.544
2.90133	0.467
2.93446	0.234
2.96759	0.48
3.00072	0.541
3.03384	0.573
3.06697	0.591
3.1001	0.593
3.13323	0.583
3.16636	0.561
3.19948	0.569
3.23261	0.585
3.26574	0.588
3.29887	0.571
3.332	0.475
3.36513	0.26
3.39825	0.235
3.43138	0.375
3.46451	0.367
3.49764	0.496
3.53077	0.629
3.56389	0.643
3.59702	0.648
3.63015	0.667
3.66328	0.669
3.69641	0.673
3.72953	0.681
3.76266	0.688
3.79579	0.691
3.82892	0.692
3.86205	0.701
3.89518	0.703
3.9283	0.703
3.96143	0.705
3.99456	0.713
4.02769	0.713
4.06082	0.715
4.09394	0.72
4.12707	0.725
4.1602	0.729
4.19333	0.733
4.22646	0.74
4.25958	0.74
4.29271	0.741
4.32584	0.74
4.35897	0.74
4.3921	0.741
4.42523	0.747
4.45835	0.747
4.49148	0.748
4.52461	0.748
4.55774	0.756
4.59087	0.758
4.62399	0.76
4.65712	0.761
4.69025	0.762
4.72338	0.762
4.75651	0.765
4.78964	0.768
4.82276	0.77
4.85589	0.768
4.88902	0.768
4.92215	0.769
4.95528	0.768
4.9884	0.766
5.02153	0.77
5.05466	0.77
5.08779	0.78
5.12092	0.782
5.15404	0.78
5.18717	0.776
5.2203	0.773
5.25343	0.772
5.28656	0.781
5.31969	0.781
5.35281	0.78
5.38594	0.77
5.41907	0.764
5.4522	0.761
5.48533	0.757
5.51845	0.732
5.55158	0.721
5.58471	0.711
5.61784	0.64
5.65097	0.596
5.68409	0.464
5.71722	0.347
5.75035	0.194
5.78348	0.167
5.81661	0.303
5.84974	0.484
5.88286	0.592
5.91599	0.667
5.94912	0.696
5.98225	0.7
6.01538	0.68
6.0485	0.623
6.08163	0.597
6.11476	0.548
6.14789	0.561
6.18102	0.549
6.21414	0.513
6.24727	0.517
6.2804	0.565
6.31353	0.45
6.34666	0.291
6.37979	0.182
6.41291	0.183
6.44604	0.271
6.47917	0.334
6.5123	0.44
6.54543	0.587
6.57855	0.635
6.61168	0.648
6.64481	0.635
6.67794	0.605
6.71107	0.556
6.74419	0.512
6.77732	0.563
6.81045	0.587
6.84358	0.6
6.87671	0.592
6.90984	0.533
6.94296	0.492
6.97609	0.597
7.00922	0.716
7.04235	0.753
7.07548	0.76
7.1086	0.761
7.14173	0.75
7.17486	0.731
7.20799	0.693
7.24112	0.624
7.27425	0.544
7.30737	0.34
7.3405	0.142
7.37363	0.102
7.40676	0.135
7.43989	0.251
7.47301	0.343
7.50614	0.374
7.53927	0.43
7.5724	0.551
7.60553	0.625
7.63865	0.628
7.67178	0.603
7.70491	0.498
7.73804	0.302
7.77117	0.327
7.8043	0.551
7.83742	0.673
7.87055	0.684
7.90368	0.655
7.93681	0.597
7.96994	0.479
8.00306	0.315
8.03619	0.153
8.06932	0.15
8.10245	0.199
8.13558	0.354
8.1687	0.432
8.20183	0.54
8.23496	0.64
8.26809	0.689
8.30122	0.731
8.33435	0.764
8.36747	0.785
8.4006	0.798
8.43373	0.801
8.46686	0.792
8.49999	0.774
8.53311	0.753
8.56624	0.754
8.59937	0.768
8.6325	0.784
8.66563	0.808
8.69875	0.813
8.73188	0.825
8.76501	0.828
8.79814	0.829
8.83127	0.83
8.8644	0.834
8.89752	0.836
8.93065	0.833
8.96378	0.818
8.99691	0.778
9.03004	0.697
9.06316	0.612
9.09629	0.533
9.12942	0.486
9.16255	0.478
9.19568	0.505
9.2288	0.584
9.26193	0.639
9.29506	0.641
9.32819	0.641
9.36132	0.612
9.39445	0.559
9.42757	0.581
9.4607	0.697
9.49383	0.741
9.52696	0.737
9.56009	0.745
9.59321	0.828
9.62634	0.865
9.65947	0.886
9.6926	0.904
9.72573	0.916
9.75885	0.921
9.79198	0.925
9.82511	0.926
9.85824	0.929
9.89137	0.929
9.9245	0.922
9.95762	0.92
9.99075	0.924
10.0239	0.934
10.057	0.941
10.0901	0.941
10.1233	0.94
10.1564	0.942
10.1895	0.938
10.2226	0.922
10.2558	0.921
10.2889	0.94
10.322	0.942
10.3552	0.945
10.3883	0.95
10.4214	0.95
10.4545	0.95
10.4877	0.941
10.5208	0.93
10.5539	0.894
10.5871	0.834
10.6202	0.748
10.6533	0.701
10.6864	0.773
10.7196	0.862
10.7527	0.909
10.7858	0.937
10.819	0.948
10.8521	0.952
10.8852	0.952
10.9183	0.95
10.9515	0.948
10.9846	0.948
11.0177	0.95
11.0509	0.95
11.084	0.941
11.1171	0.934
11.1502	0.921
11.1834	0.913
11.2165	0.88
11.2496	0.8
11.2827	0.62
11.3159	0.523
11.349	0.753
11.3821	0.904
11.4153	0.953
11.4484	0.964
11.4815	0.976
11.5146	0.982
11.5478	0.981
11.5809	0.984
11.614	0.984
11.6472	0.982
11.6803	0.981
11.7134	0.98
11.7465	0.978
11.7797	0.98
11.8128	0.976
11.8459	0.972
11.8791	0.966
11.9122	0.96
11.9453	0.954
11.9784	0.942
12.0116	0.912
12.0447	0.829
12.0778	0.724
12.111	0.697
12.1441	0.836
12.1772	0.902
12.2103	0.933
12.2435	0.946
12.2766	0.948
12.3097	0.94
12.3428	0.918
12.376	0.861
12.4091	0.789
12.4422	0.656
12.4754	0.601
12.5085	0.691
12.5416	0.837
12.5747	0.901
12.6079	0.93
12.641	0.94
12.6741	0.937
12.7073	0.929
12.7404	0.922
12.7735	0.913
12.8066	0.893
12.8398	0.862
12.8729	0.818
12.906	0.786
12.9392	0.741
12.9723	0.659
13.0054	0.533
13.0385	0.394
13.0717	0.371
13.1048	0.479
13.1379	0.54
13.1711	0.661
13.2042	0.773
13.2373	0.848
13.2704	0.87
13.3036	0.874
13.3367	0.87
13.3698	0.862
13.4029	0.829
13.4361	0.794
13.4692	0.723
13.5023	0.604
13.5355	0.41
13.5686	0.26
13.6017	0.286
13.6348	0.48
13.668	0.648
13.7011	0.719
13.7342	0.735
13.7674	0.736
13.8005	0.743
13.8336	0.77
13.8667	0.813
13.8999	0.838
13.933	0.84
13.9661	0.838
13.9993	0.834
14.0324	0.832
14.0655	0.829
14.0986	0.824
14.1318	0.818
14.1649	0.816
14.198	0.813
14.2312	0.806
14.2643	0.802
14.2974	0.798
14.3305	0.785
14.3637	0.773
14.3968	0.76
14.4299	0.731
14.463	0.697
14.4962	0.647
14.5293	0.596
14.5624	0.545
14.5956	0.527
14.6287	0.532
14.6618	0.552
14.6949	0.579
14.7281	0.579
14.7612	0.568
14.7943	0.547
14.8275	0.517
14.8606	0.492
14.8937	0.496
14.9268	0.509
14.96	0.539
14.9931	0.548
