Infrared Spectrum: N-n-BUTYL-2-CHLOROANILINE
Formula: C10 H14 Cl N
CAS: 939-61-7
State: SOLUTION (10% IN CCl4 FOR 5000-1350 CM^-^1, 10% IN CS2 FOR 1350-625 CM^-^1)
Class: COBLENTZ
Instrument: Not specified, most likely a prism, grating, or hybrid spectrometer.
Sampling: TRANSMISSION
Path length: 0.01 CM, 0.01 CM
Resolution: 4
Origin: DOW CHEMICAL COMPANY
MICROMETERS	TRANSMITTANCE
2.035	0.871
2.07412	0.871
2.11324	0.872
2.15236	0.877
2.19148	0.877
2.23059	0.871
2.26971	0.868
2.30883	0.876
2.34795	0.872
2.38707	0.876
2.42619	0.881
2.46531	0.884
2.50443	0.894
2.54354	0.885
2.58266	0.889
2.62178	0.895
2.6609	0.887
2.70002	0.889
2.73914	0.884
2.77826	0.877
2.81738	0.863
2.8565	0.78
2.89561	0.605
2.93473	0.858
2.97385	0.85
3.01297	0.864
3.05209	0.861
3.09121	0.855
3.13033	0.85
3.16945	0.845
3.20856	0.785
3.24768	0.71
3.2868	0.745
3.32592	0.651
3.36504	0.244
3.40416	0.325
3.44328	0.423
3.4824	0.446
3.52151	0.749
3.56063	0.848
3.59975	0.868
3.63887	0.872
3.67799	0.885
3.71711	0.894
3.75623	0.895
3.79535	0.89
3.83447	0.894
3.87358	0.903
3.9127	0.91
3.95182	0.921
3.99094	0.931
4.03006	0.934
4.06918	0.939
4.1083	0.938
4.14742	0.929
4.18653	0.915
4.22565	0.903
4.26477	0.91
4.30389	0.92
4.34301	0.926
4.38213	0.938
4.42125	0.944
4.46037	0.947
4.49949	0.949
4.5386	0.949
4.57772	0.949
4.61684	0.946
4.65596	0.946
4.69508	0.947
4.7342	0.947
4.77332	0.947
4.81244	0.947
4.85155	0.947
4.89067	0.946
4.92979	0.944
4.96891	0.944
5.00803	0.944
5.04715	0.946
5.08627	0.947
5.12539	0.944
5.16451	0.928
5.20362	0.907
5.24274	0.936
5.28186	0.887
5.32098	0.907
5.3601	0.939
5.39922	0.9
5.43834	0.929
5.47746	0.936
5.51657	0.941
5.55569	0.916
5.59481	0.925
5.63393	0.913
5.67305	0.885
5.71217	0.9
5.75129	0.912
5.79041	0.908
5.82953	0.876
5.86864	0.89
5.90776	0.885
5.94688	0.864
5.986	0.842
6.02512	0.825
6.06424	0.812
6.10336	0.757
6.14248	0.646
6.18159	0.374
6.22071	0.068
6.25983	0.371
6.29895	0.472
6.33807	0.462
6.37719	0.46
6.41631	0.429
6.45543	0.415
6.49454	0.4
6.53366	0.298
6.57278	0.122
6.6119	0.071
6.65102	0.206
6.69014	0.4
6.72926	0.348
6.76838	0.302
6.8075	0.218
6.84661	0.472
6.88573	0.55
6.92485	0.446
6.96397	0.446
7.00309	0.672
7.04221	0.767
7.08133	0.783
7.12045	0.786
7.15956	0.755
7.19868	0.657
7.2378	0.677
7.27692	0.765
7.31604	0.812
7.35516	0.791
7.39428	0.736
7.4334	0.522
7.47252	0.257
7.51163	0.157
7.55075	0.366
7.58987	0.542
7.62899	0.516
7.66811	0.444
7.70723	0.343
7.74635	0.596
7.78547	0.714
7.82458	0.729
7.8637	0.675
7.90282	0.651
7.94194	0.653
7.98106	0.661
8.02018	0.594
8.0593	0.69
8.09842	0.736
8.13754	0.719
8.17665	0.747
8.21577	0.804
8.25489	0.835
8.29401	0.846
8.33313	0.85
8.37225	0.835
8.41137	0.799
8.45049	0.809
8.4896	0.742
8.52872	0.646
8.56784	0.503
8.60696	0.599
8.64608	0.625
8.6852	0.543
8.72432	0.591
8.76344	0.706
8.80255	0.749
8.84167	0.714
8.88079	0.594
8.91991	0.503
8.95903	0.604
8.99815	0.724
9.03727	0.76
9.07639	0.745
9.11551	0.693
9.15462	0.636
9.19374	0.63
9.23286	0.724
9.27198	0.791
9.3111	0.812
9.35022	0.809
9.38934	0.801
9.42846	0.755
9.46757	0.675
9.50669	0.643
9.54581	0.659
9.58493	0.506
9.62405	0.247
9.66317	0.161
9.70229	0.631
9.74141	0.747
9.78053	0.804
9.81964	0.856
9.85876	0.877
9.89788	0.884
9.937	0.89
9.97612	0.892
10.0152	0.879
10.0544	0.872
10.0935	0.869
10.1326	0.872
10.1717	0.879
10.2108	0.895
10.25	0.9
10.2891	0.905
10.3282	0.894
10.3673	0.885
10.4064	0.892
10.4455	0.9
10.4847	0.907
10.5238	0.912
10.5629	0.918
10.602	0.915
10.6411	0.915
10.6803	0.908
10.7194	0.897
10.7585	0.866
10.7976	0.767
10.8367	0.711
10.8759	0.827
10.915	0.864
10.9541	0.866
10.9932	0.864
11.0323	0.868
11.0714	0.868
11.1106	0.866
11.1497	0.851
11.1888	0.84
11.2279	0.815
11.267	0.798
11.3062	0.77
11.3453	0.758
11.3844	0.752
11.4235	0.741
11.4626	0.734
11.5018	0.721
11.5409	0.713
11.58	0.701
11.6191	0.697
11.6582	0.697
11.6973	0.698
11.7365	0.719
11.7756	0.732
11.8147	0.75
11.8538	0.755
11.8929	0.75
11.9321	0.742
11.9712	0.728
12.0103	0.726
12.0494	0.757
12.0885	0.768
12.1277	0.776
12.1668	0.783
12.2059	0.78
12.245	0.773
12.2841	0.771
12.3232	0.77
12.3624	0.77
12.4015	0.77
12.4406	0.768
12.4797	0.763
12.5188	0.757
12.558	0.755
12.5971	0.754
12.6362	0.752
12.6753	0.752
12.7144	0.754
12.7536	0.757
12.7927	0.76
12.8318	0.76
12.8709	0.76
12.91	0.76
12.9491	0.757
12.9883	0.75
13.0274	0.744
13.0665	0.731
13.1056	0.714
13.1447	0.692
13.1839	0.662
13.223	0.628
13.2621	0.579
13.3012	0.524
13.3403	0.465
13.3795	0.348
13.4186	0.206
13.4577	0.078
13.4968	0.008
13.5359	0
13.5751	0.055
13.6142	0.185
13.6533	0.351
13.6924	0.469
13.7315	0.548
13.7706	0.579
13.8098	0.605
13.8489	0.623
13.888	0.628
13.9271	0.627
13.9662	0.614
14.0054	0.597
14.0445	0.581
14.0836	0.591
14.1227	0.609
14.1618	0.612
14.201	0.596
14.2401	0.566
14.2792	0.535
14.3183	0.509
14.3574	0.495
14.3965	0.493
14.4357	0.496
14.4748	0.5
14.5139	0.493
14.553	0.488
14.5921	0.486
14.6313	0.491
14.6704	0.5
14.7095	0.509
14.7486	0.516
14.7877	0.519
14.8269	0.519
14.866	0.514
14.9051	0.509
14.9442	0.514
14.9833	0.517
15.0224	0.509
15.0616	0.501
15.1007	0.493
15.1398	0.485
15.1789	0.478
15.218	0.469
15.2572	0.46
15.2963	0.456
15.3354	0.449
15.3745	0.447
15.4136	0.441
15.4528	0.438
15.4919	0.433
15.531	0.428
15.5701	0.423
15.6092	0.416
15.6483	0.412
15.6875	0.407
15.7266	0.4
15.7657	0.395
15.8048	0.39
15.8439	0.387
15.8831	0.399
