Infrared Spectrum: 4-Phenylpyridine
Formula: C 11 H 9 N
CAS: 939-23-1
State: gas
Instrument: HP-GC/MS/IRD
Origin: NIST Mass Spectrometry Data Center
1/CM	ABSORBANCE
550	0.0014014
562	0.0011671
574	0.0008052
586	0.0004576
598	0.0018678
610	0.00396
622	0.0007051
634	0.0003003
646	0.0003124
658	0.0005995
670	0.0012705
682	0.002838
694	0.004719
706	0.0037444
718	0.0021362
730	0.0028787
742	0.0055825
754	0.0069476
766	0.0048037
778	0.0016544
790	0.000693
802	0.0008492
814	0.002277
826	0.0030327
838	0.0015059
850	0.0005379
862	0.0002662
874	0.0001628
886	6.27e-05
898	7.92e-05
910	0.0002816
922	0.0002112
934	1.21e-05
946	4.4e-06
958	8.14e-05
970	6.49e-05
982	0.0006402
994	0.0011506
1006	0.0005016
1018	0.0003234
1030	0.0003344
1042	0.0007788
1054	0.0005621
1066	0.0009207
1078	0.0008613
1090	0.0003146
1102	0.0001496
1114	0.000154
1126	7.04e-05
1138	5.39e-05
1150	4.95e-05
1162	4.4e-05
1174	0.0002046
1186	0.0002486
1198	0.0002475
1210	0.0006149
1222	0.0007964
1234	0.0003289
1246	0.0001815
1258	0.0001342
1270	0.0001144
1282	0.0001408
1294	0.0002541
1306	0.0003355
1318	0.0003938
1330	0.0003036
1342	0.0002574
1354	0.0002178
1366	0.0003025
1378	0.0006534
1390	0.0013035
1402	0.0022264
1414	0.0020163
1426	0.000935
1438	0.0005698
1450	0.0006072
1462	0.000803
1474	0.0026862
1486	0.0031625
1498	0.0013057
1510	0.0010186
1522	0.0011121
1534	0.0018832
1546	0.0026928
1558	0.002684
1570	0.0031537
1582	0.0082258
1594	0.0105611
1606	0.0062876
1618	0.0021032
1630	0.0005291
1642	0.0003509
1654	0.0003773
1666	0.0004246
1678	0.000462
1690	0.0003982
1702	0.000286
1714	0.0002475
1726	0.000242
1738	0.0002981
1750	0.0002398
1762	0.0002189
1774	0.0002552
1786	0.0003498
1798	0.0004466
1810	0.0002871
1822	0.0002475
1834	0.0002134
1846	0.0001859
1858	0.0001804
1870	0.0002904
1882	0.0004114
1894	0.0003993
1906	0.0002739
1918	0.0004378
1930	0.0005984
1942	0.0005797
1954	0.0005456
1966	0.0002981
1978	9.68e-05
1990	6.71e-05
2002	6.27e-05
2014	5.39e-05
2026	4.4e-05
2038	3.85e-05
2050	4.18e-05
2062	7.48e-05
2074	6.27e-05
2086	3.85e-05
2098	4.07e-05
2110	2.42e-05
2122	2.09e-05
2134	1.98e-05
2146	4.4e-05
2158	3.63e-05
2170	3.85e-05
2182	5.17e-05
2194	6.71e-05
2206	4.4e-05
2218	5.17e-05
2230	3.74e-05
2242	3.52e-05
2254	5.39e-05
2266	2.09e-05
2278	7.26e-05
2290	9.46e-05
2302	9.46e-05
2314	0.0001034
2326	7.92e-05
2338	0.0001144
2350	6.27e-05
2362	8.47e-05
2374	0.0001078
2386	5.5e-05
2398	0.000132
2410	0.000132
2422	0.0001584
2434	0.0001595
2446	3.85e-05
2458	3.41e-05
2470	4.07e-05
2482	6.6e-06
2494	3.74e-05
2506	2.86e-05
2518	3.3e-05
2530	1.76e-05
2542	4.29e-05
2554	4.95e-05
2566	1.65e-05
2578	3.52e-05
2590	9.57e-05
2602	7.81e-05
2614	8.03e-05
2626	8.8e-05
2638	9.57e-05
2650	7.59e-05
2662	6.38e-05
2674	4.29e-05
2686	5.28e-05
2698	3.19e-05
2710	3.3e-05
2722	1.32e-05
2734	8.25e-05
2746	7.26e-05
2758	4.07e-05
2770	4.62e-05
2782	2.86e-05
2794	5.17e-05
2806	5.94e-05
2818	7.48e-05
2830	6.16e-05
2842	8.47e-05
2854	9.57e-05
2866	0.0002035
2878	0.0002167
2890	0.0002167
2902	0.0002178
2914	0.0001738
2926	0.0002299
2938	0.0002574
2950	0.000407
2962	0.0005731
2974	0.0008074
2986	0.0010153
2998	0.0011176
3010	0.0017171
3022	0.0037257
3034	0.0055286
3046	0.0044462
3058	0.0048939
3070	0.0074778
3082	0.0058443
3094	0.0032472
3106	0.0017259
3118	0.0007964
3130	0.0003795
3142	0.000286
3154	0.0002343
3166	0.0001881
3178	0.0001892
3190	0.0001386
3202	6.93e-05
3214	0.0001232
3226	6.05e-05
3238	4.51e-05
3250	8.58e-05
3262	2.64e-05
3274	7.26e-05
3286	7.04e-05
3298	6.05e-05
3310	0.0001496
3322	8.36e-05
3334	0.0001716
3346	8.25e-05
3358	9.9e-05
3370	6.93e-05
3382	9.68e-05
3394	6.16e-05
3406	0.0001188
3418	9.13e-05
3430	0.0001089
3442	9.02e-05
3454	8.91e-05
3466	0.0001133
3478	0.0001573
3490	0.0001122
3502	7.48e-05
3514	0.0001166
3526	6.27e-05
3538	0.0001804
3550	7.04e-05
3562	9.68e-05
3574	0.0001056
3586	0.0001331
3598	0.000143
3610	0.0001364
3622	0.0001749
3634	0.0001771
3646	0.0001738
3658	0.0001738
3670	0.0002211
3682	0.0001518
3694	0.0002156
3706	0.0001892
3718	0.0001551
3730	0.0001441
3742	0.0002244
3754	0.0001342
3766	0.0001639
3778	0.0001364
3790	8.58e-05
3802	0.0001661
3814	0.0001991
3826	0.0002211
3838	0.0001485
