Infrared Spectrum: ANILINE, N-TERT-BUTYL-2-CHLORO-
Formula: C10 H14 Cl N
CAS: 939-36-6
State: LIQUID (NEAT)
Class: COBLENTZ III
Instrument: BECKMAN IR-4 (HYBRID PRISM-GRATING)
Instrument parameters: NaCl PRISM
Sampling: TRANSMISSION
Path length: CAPILLARY
Resolution: 2
Origin: MONSANTO (J. FREEMAN)
MICROMETERS	TRANSMITTANCE
0.958	0.769
1.00053	0.782
1.04306	0.78
1.0856	0.786
1.12813	0.795
1.17066	0.804
1.21319	0.807
1.25573	0.816
1.29826	0.817
1.34079	0.817
1.38332	0.829
1.42585	0.836
1.46839	0.841
1.51092	0.842
1.55345	0.843
1.59598	0.848
1.63852	0.856
1.68105	0.862
1.72358	0.868
1.76611	0.873
1.80864	0.878
1.85118	0.881
1.89371	0.882
1.93624	0.878
1.97877	0.873
2.02131	0.876
2.06384	0.894
2.10637	0.882
2.1489	0.893
2.19143	0.894
2.23397	0.877
2.2765	0.873
2.31903	0.893
2.36156	0.881
2.4041	0.881
2.44663	0.897
2.48916	0.902
2.53169	0.908
2.57423	0.914
2.61676	0.921
2.65929	0.926
2.70182	0.929
2.74435	0.929
2.78689	0.929
2.82942	0.927
2.87195	0.891
2.91448	0.629
2.95702	0.782
2.99955	0.917
3.04208	0.923
3.08461	0.918
3.12714	0.909
3.16968	0.899
3.21221	0.771
3.25474	0.722
3.29727	0.699
3.33981	0.319
3.38234	0.269
3.42487	0.532
3.4674	0.54
3.50993	0.831
3.55247	0.908
3.595	0.925
3.63753	0.929
3.68006	0.939
3.7226	0.949
3.76513	0.933
3.80766	0.918
3.85019	0.912
3.89272	0.921
3.93526	0.945
3.97779	0.949
4.02032	0.945
4.06285	0.961
4.10539	0.95
4.14792	0.957
4.19045	0.965
4.23298	0.959
4.27551	0.959
4.31805	0.961
4.36058	0.95
4.40311	0.965
4.44564	0.972
4.48818	0.972
4.53071	0.968
4.57324	0.972
4.61577	0.96
4.6583	0.965
4.70084	0.972
4.74337	0.975
4.7859	0.975
4.82843	0.975
4.87097	0.974
4.9135	0.974
4.95603	0.974
4.99856	0.974
5.04109	0.974
5.08363	0.969
5.12616	0.961
5.16869	0.923
5.21122	0.917
5.25376	0.925
5.29629	0.909
5.33882	0.947
5.38135	0.949
5.42389	0.941
5.46642	0.966
5.50895	0.956
5.55148	0.941
5.59401	0.95
5.63655	0.947
5.67908	0.926
5.72161	0.949
5.76414	0.965
5.80668	0.96
5.84921	0.949
5.89174	0.942
5.93427	0.909
5.9768	0.867
6.01934	0.864
6.06187	0.855
6.1044	0.804
6.14693	0.712
6.18947	0.561
6.232	0.191
6.27453	0.165
6.31706	0.441
6.35959	0.652
6.40213	0.765
6.44466	0.729
6.48719	0.497
6.52972	0.318
6.57226	0.116
6.61479	0.121
6.65732	0.231
6.69985	0.417
6.74238	0.287
6.78492	0.158
6.82745	0.135
6.86998	0.376
6.91251	0.606
6.95505	0.453
6.99758	0.617
7.04011	0.771
7.08264	0.782
7.12517	0.623
7.16771	0.318
7.21024	0.632
7.25277	0.7
7.2953	0.242
7.33784	0.48
7.38037	0.736
7.4229	0.701
7.46543	0.474
7.50796	0.153
7.5505	0.221
7.59303	0.431
7.63556	0.609
7.67809	0.626
7.72063	0.449
7.76316	0.396
7.80569	0.551
7.84822	0.603
7.89075	0.466
7.93329	0.314
7.97582	0.448
8.01835	0.574
8.06088	0.549
8.10342	0.43
8.14595	0.248
8.18848	0.116
8.23101	0.104
8.27355	0.167
8.31608	0.311
8.35861	0.445
8.40114	0.55
8.44367	0.616
8.48621	0.689
8.52874	0.765
8.57127	0.776
8.6138	0.693
8.65634	0.787
8.69887	0.866
8.7414	0.871
8.78393	0.822
8.82646	0.728
8.869	0.58
8.91153	0.604
8.95406	0.843
8.99659	0.929
9.03913	0.965
9.08166	0.971
9.12419	0.977
9.16672	0.978
9.20925	0.974
9.25179	0.963
9.29432	0.959
9.33685	0.953
9.37938	0.938
9.42192	0.914
9.46445	0.823
9.50698	0.469
9.54951	0.468
9.59204	0.496
9.63458	0.128
9.67711	0.227
9.71964	0.341
9.76217	0.521
9.80471	0.682
9.84724	0.81
9.88977	0.884
9.9323	0.914
9.97483	0.929
10.0174	0.935
10.0599	0.939
10.1024	0.939
10.145	0.933
10.1875	0.919
10.23	0.888
10.2726	0.817
10.3151	0.695
10.3576	0.651
10.4002	0.698
10.4427	0.792
10.4852	0.837
10.5278	0.859
10.5703	0.884
10.6128	0.908
10.6554	0.919
10.6979	0.918
10.7404	0.893
10.7829	0.858
10.8255	0.772
10.868	0.701
10.9105	0.756
10.9531	0.856
10.9956	0.919
11.0381	0.955
11.0807	0.973
11.1232	0.981
11.1657	0.983
11.2083	0.984
11.2508	0.984
11.2933	0.984
11.3359	0.984
11.3784	0.984
11.4209	0.985
11.4635	0.985
11.506	0.985
11.5485	0.985
11.5911	0.985
11.6336	0.983
11.6761	0.98
11.7187	0.977
11.7612	0.973
11.8037	0.966
11.8463	0.954
11.8888	0.93
11.9313	0.878
11.9738	0.826
12.0164	0.801
12.0589	0.83
12.1014	0.875
12.144	0.903
12.1865	0.919
12.229	0.925
12.2716	0.93
12.3141	0.93
12.3566	0.929
12.3992	0.927
12.4417	0.923
12.4842	0.915
12.5268	0.906
12.5693	0.894
12.6118	0.884
12.6544	0.875
12.6969	0.868
12.7394	0.867
12.782	0.875
12.8245	0.877
12.867	0.875
12.9096	0.866
12.9521	0.858
12.9946	0.834
13.0372	0.81
13.0797	0.777
13.1222	0.724
13.1648	0.649
13.2073	0.574
13.2498	0.489
13.2923	0.389
13.3349	0.312
13.3774	0.212
13.4199	0.14
13.4625	0.102
13.505	0.087
13.5475	0.093
13.5901	0.108
13.6326	0.159
13.6751	0.25
13.7177	0.362
13.7602	0.454
13.8027	0.536
13.8453	0.582
13.8878	0.618
13.9303	0.641
13.9729	0.651
14.0154	0.662
14.0579	0.673
14.1005	0.687
14.143	0.695
14.1855	0.687
14.2281	0.665
14.2706	0.634
14.3131	0.57
14.3557	0.503
14.3982	0.465
14.4407	0.473
14.4833	0.507
14.5258	0.551
14.5683	0.609
14.6108	0.644
14.6534	0.683
14.6959	0.709
14.7384	0.731
14.781	0.754
14.8235	0.768
14.866	0.778
14.9086	0.782
14.9511	0.783
14.9936	0.787
15.0362	0.792
15.0787	0.798
15.1212	0.805
15.1638	0.814
15.2063	0.828
15.2488	0.841
15.2914	0.858
15.3339	0.871
15.3764	0.878
15.419	0.888
15.4615	0.895
15.504	0.902
15.5466	0.905
15.5891	0.905
15.6316	0.903
15.6742	0.902
15.7167	0.901
15.7592	0.899
15.8018	0.899
15.8443	0.899
15.8868	0.899
15.9293	0.894
