Infrared Spectrum: 4-(Trifluoromethyl)benzyl chloride
Formula: C 8 H 6 Cl F 3
CAS: 939-99-1
State: gas
Origin: EPA-IR VAPOR PHASE LIBRARY
1/CM	ABSORBANCE
549.8	0.0010333
559.445	0.001592
569.09	0.0011659
578.735	0.002162
588.38	0.002182
598.025	0.002702
607.67	0.002962
617.315	0.003042
626.96	0.002122
636.605	0.001662
646.251	0.001582
655.896	0.001742
665.541	0.001912
675.186	0.003142
684.831	0.005082
694.476	0.008052
704.121	0.008592
713.766	0.005832
723.411	0.003732
733.056	0.003402
742.701	0.005662
752.346	0.012742
761.991	0.010822
771.636	0.004712
781.281	0.002772
790.926	0.002722
800.571	0.002952
810.216	0.004632
819.861	0.008902
829.507	0.011262
839.152	0.009602
848.797	0.006292
858.442	0.003332
868.087	0.001832
877.732	0.0014942
887.377	0.0015109
897.022	0.001542
906.667	0.0013881
916.312	0.0012319
925.957	0.0011254
935.602	0.0013098
945.247	0.0011432
954.892	0.0010005
964.537	0.0009138
974.182	0.0009389
983.827	0.000909
993.472	0.001208
1003.12	0.001982
1012.76	0.007492
1022.41	0.012972
1032.05	0.003012
1041.7	0.002032
1051.34	0.004192
1060.99	0.023602
1070.63	0.053322
1080.28	0.013792
1089.92	0.006902
1099.57	0.009312
1109.21	0.015102
1118.86	0.021652
1128.5	0.030722
1138.15	0.051542
1147.79	0.081422
1157.44	0.079792
1167.08	0.070282
1176.73	0.060322
1186.37	0.031612
1196.02	0.013082
1205.66	0.006882
1215.31	0.004962
1224.95	0.005312
1234.6	0.005052
1244.24	0.004002
1253.89	0.005552
1263.53	0.009172
1273.18	0.009562
1282.82	0.007432
1292.47	0.008222
1302.11	0.014942
1311.76	0.047862
1321.4	0.142472
1331.05	0.097052
1340.69	0.016672
1350.34	0.008002
1359.98	0.006152
1369.63	0.004962
1379.27	0.003612
1388.92	0.003342
1398.56	0.004292
1408.21	0.005952
1417.85	0.006242
1427.5	0.005052
1437.14	0.003552
1446.79	0.002722
1456.43	0.001792
1466.08	0.0011692
1475.73	0.0008503
1485.37	0.0007187
1495.02	0.0007355
1504.66	0.0006641
1514.31	0.0007481
1523.95	0.0006512
1533.6	0.0006362
1543.24	0.00059405
1552.89	0.0007658
1562.53	0.0007335
1572.18	0.0009547
1581.82	0.0011118
1591.47	0.0013009
1601.11	0.001732
1610.76	0.003012
1620.4	0.004562
1630.05	0.003572
1639.69	0.002052
1649.34	0.001632
1658.98	0.0014406
1668.63	0.001312
1678.27	0.0010781
1687.92	0.0008284
1697.56	0.0006322
1707.21	0.00054764
1716.85	0.00058581
1726.5	0.00059135
1736.14	0.0007284
1745.79	0.0007837
1755.43	0.0007372
1765.08	0.000671
1774.72	0.0008157
1784.37	0.0010775
1794.01	0.0013293
1803.66	0.0008452
1813.3	0.0005014
1822.95	0.0004837
1832.59	0.000383
1842.24	0.0004173
1851.88	0.0004266
1861.53	0.0004524
1871.17	0.00052514
1880.82	0.00059813
1890.46	0.0007102
1900.11	0.0010378
1909.75	0.0012502
1919.4	0.0012584
1929.04	0.0010837
1938.69	0.0006775
1948.33	0.0004572
1957.98	0.000388
1967.62	0.000353
1977.27	0.000371
1986.91	0.0004302
1996.56	0.000348
2006.2	0.000282
2015.85	0.000374
2025.49	0.000297
2035.14	0.000368
2044.78	0.00033
2054.43	0.000418
2064.07	0.0004541
2073.72	0.00056568
2083.36	0.000521317
2093.01	0.000296
2102.65	0.000282
2112.3	0.00031
2121.94	0.000255
2131.59	0.000301
2141.23	0.000349
2150.88	0.000301
2160.52	0.000344
2170.17	0.000301
2179.81	0.000346
2189.46	0.000251
2199.1	0.000275
2208.75	0.0004342
2218.39	0.0004785
2228.04	0.0004498
2237.68	0.000447
2247.33	0.0004386
2256.97	0.0004193
2266.62	0.0004666
2276.26	0.000527
2285.91	0.0005915
2295.55	0.0006237
2305.2	0.00060708
2314.84	0.0004946
2324.49	0.00055891
2334.13	0.0004554
2343.78	0.00054799
2353.42	0.0004268
2363.07	0.000405
2372.72	0.000338
2382.36	0.000311
2392.01	0.000296
2401.65	0.000263
2411.3	0.000252
2420.94	0.000187
2430.59	0.000259
2440.23	0.000333
2449.88	0.000206
2459.52	0.000216
2469.17	0.000294
2478.81	0.000348
2488.46	0.000273
2498.1	0.000239
2507.75	0.000203
2517.39	0.000227
2527.04	0.000189
2536.68	0.000151
2546.33	0.000184
2555.97	0.000136
2565.62	0.000165
2575.26	0.000247
2584.91	0.000212
2594.55	0.000272
2604.2	0.000337
2613.84	0.000159
2623.49	0.000222
2633.13	0.000284
2642.78	0.000318
2652.42	0.00027
2662.07	6e-05
2671.71	9.6e-05
2681.36	0.000159
2691	0.000156
2700.65	0.000149
2710.29	0.000347
2719.94	0.000334
2729.58	0.000241
2739.23	0.000193
2748.87	0.000134
2758.52	0.00015
2768.16	0.000186
2777.81	0.000149
2787.45	0.00011
2797.1	8.5e-05
2806.74	0.000204
2816.39	0.000187
2826.03	0.000316
2835.68	0.000299
2845.32	0.000383
2854.97	0.000353
2864.61	0.0004491
2874.26	0.000512617
2883.9	0.0006687
2893.55	0.000349
2903.19	0.0004129
2912.84	0.000412
2922.48	0.00051906
2932.13	0.0007005
2941.77	0.0012689
2951.42	0.001622
2961.06	0.002022
2970.71	0.002282
2980.35	0.001972
2990	0.0014375
2999.64	0.0013974
3009.29	0.0010599
3018.93	0.001552
3028.58	0.0013889
3038.22	0.001632
3047.87	0.002092
3057.51	0.001792
3067.16	0.0013546
3076.8	0.0011233
3086.45	0.0010061
3096.09	0.0009634
3105.74	0.000814
3115.38	0.00057746
3125.03	0.0004211
3134.67	0.000346
3144.32	0.0004803
3153.96	0.000222
3163.61	0.00022
3173.25	0.000133
3182.9	0.000185
3192.54	0.000286
3202.19	0.000216
3211.83	2.6e-05
3221.48	0.000256
3231.12	0.000238
3240.77	0.000163
3250.41	0.000208
3260.06	0.000195
3269.7	0.000157
3279.35	0.000163
3289	0.000312
3298.64	0.000284
3308.29	0.000191
3317.93	0.000289
3327.58	0.000346
3337.22	0.000324
3346.87	0.000403
3356.51	0.000211
3366.16	0.000278
3375.8	0.000391
3385.45	0.000373
3395.09	0.000377
3404.74	0.000296
3414.38	0.000181
3424.03	0.000149
3433.67	0.0003
3443.32	0.000343
3452.96	0.00022
3462.61	0.000234
3472.25	0.000225
3481.9	0.000267
3491.54	0.000326
3501.19	0.000265
3510.83	0.000322
3520.48	0.000244
3530.12	0.000411
3539.77	0.0004446
3549.41	0.000237
3559.06	0.000332
3568.7	0.000257
3578.35	0.000264
3587.99	0.000217
3597.64	0.000299
3607.28	0.00026
3616.93	8e-05
3626.57	0.000245
3636.22	0.000412
3645.86	0.000335
3655.51	0.000234
3665.15	0.0005006
3674.8	0.0004448
3684.44	0.000357
3694.09	0.000428
3703.73	0.00026
3713.38	0.000348
3723.02	0.000244
3732.67	0.000345
3742.31	8.4e-05
3751.96	0.000288
3761.6	0.000321
3771.25	0.000239
3780.89	0.000316
3790.54	0.00053561
3800.18	0.000285
3809.83	0.000282
3819.47	0.000152
3829.12	0.000159
3838.76	0.000335
3848.41	0.000159
3858.05	0.000196
3867.7	0.000295
3877.34	0.000269
3886.99	0.000187
3896.63	0.000118
3906.28	0.000258
3915.92	0.000191
3925.57	0.0004187
3935.21	0.000341
3944.86	0.000301
3954.5	0.000343
3964.15	0.0002
3973.79	0.000336
3983.44	0.000159
3993.08	0.000181
