Infrared Spectrum: GUANINE, 9-BUTYL-
Formula: C9 H13 N5 O
CAS: 93905-75-0
State: SOLID (0.9 mg / 650 mg KBr DISC)
Class: COBLENTZ III
Instrument: PERKIN-ELMER 21 (GRATING)
Instrument parameters: FILTER CHANGE AT 1020 CM^-^1
Sampling: TRANSMISSION
Resolution: 2
Origin: SOUTHERN RESEARCH INSTITUTE
1/CM	TRANSMITTANCE
603.084	0.5
612.242	0.499
621.4	0.4866
630.557	0.4736
639.715	0.4593
648.873	0.4401
658.031	0.426
667.189	0.4465
676.346	0.4077
685.504	0.4657
694.662	0.5767
703.82	0.4435
712.978	0.386
722.135	0.5212
731.293	0.569
740.451	0.5751
749.609	0.5565
758.767	0.5753
767.924	0.6621
777.082	0.6604
786.24	0.5545
795.398	0.6731
804.555	0.7444
813.713	0.7635
822.871	0.7799
832.029	0.7828
841.187	0.7725
850.344	0.7389
859.502	0.7451
868.66	0.7949
877.818	0.798
886.976	0.798
896.133	0.7973
905.291	0.796
914.449	0.793
923.607	0.788
932.765	0.776
941.922	0.773
951.08	0.773
960.238	0.7698
969.396	0.7628
978.554	0.7529
987.711	0.7429
996.869	0.734
1006.03	0.7214
1015.18	0.701
1024.34	0.6376
1033.5	0.5747
1042.66	0.7163
1051.82	0.7355
1060.97	0.7459
1070.13	0.748
1079.29	0.7327
1088.45	0.705
1097.6	0.6799
1106.76	0.714
1115.92	0.712
1125.08	0.714
1134.24	0.7091
1143.39	0.6924
1152.55	0.6471
1161.71	0.5599
1170.87	0.5516
1180.03	0.6175
1189.18	0.5922
1198.34	0.3902
1207.5	0.3927
1216.66	0.7165
1225.81	0.738
1234.97	0.7216
1244.13	0.709
1253.29	0.7
1262.45	0.6617
1271.6	0.6006
1280.76	0.4633
1289.92	0.561
1299.08	0.447
1308.23	0.4889
1317.39	0.5276
1326.55	0.4028
1335.71	0.4069
1344.87	0.5045
1354.02	0.3827
1363.18	0.2667
1372.34	0.307
1381.5	0.4429
1390.65	0.5589
1399.81	0.7124
1408.97	0.7194
1418.13	0.7059
1427.29	0.6924
1436.44	0.6145
1445.6	0.574
1454.76	0.5324
1463.92	0.5249
1473.07	0.5539
1482.23	0.5936
1491.39	0.5686
1500.55	0.5263
1509.71	0.4719
1518.86	0.4118
1528.02	0.3155
1537.18	0.238
1546.34	0.2423
1555.49	0.1964
1564.65	0.0593
1573.81	0.0195
1582.97	0.0239
1592.13	0.0789
1601.28	0.0829
1610.44	0.028
1619.6	0.028
1628.76	0.025
1637.91	0.024
1647.07	0.0631
1656.23	0.2018
1665.39	0.271
1674.55	0.3002
1683.7	0.3247
1692.86	0.284
1702.02	0.2434
1711.18	0.1943
1720.33	0.1358
1729.49	0.092
1738.65	0.1425
1747.81	0.3537
1756.97	0.5779
1766.12	0.6711
1775.28	0.7729
1784.44	0.8109
1793.6	0.846
1802.76	0.865
1811.91	0.8804
1821.07	0.8926
1830.23	0.902
1839.39	0.9065
1848.54	0.9118
1857.7	0.9153
1866.86	0.918
1876.02	0.919
1885.18	0.9221
1894.33	0.928
1903.49	0.929
1912.65	0.929
1921.81	0.929
1930.96	0.929
1940.12	0.929
1949.28	0.931
1958.44	0.931
1967.6	0.931
1976.75	0.931
1985.91	0.931
1995.07	0.929
2004.23	0.928
2013.38	0.9278
2022.54	0.927
2031.7	0.924
2040.86	0.922
2050.02	0.919
2059.17	0.918
2068.33	0.9205
2077.49	0.9282
2086.65	0.929
2095.8	0.928
2104.96	0.928
2114.12	0.928
2123.28	0.928
2132.44	0.928
2141.59	0.928
2150.75	0.928
2159.91	0.927
2169.07	0.926
2178.22	0.926
2187.38	0.926
2196.54	0.9255
2205.7	0.9175
2214.86	0.916
2224.01	0.918
2233.17	0.916
2242.33	0.9158
2251.49	0.914
2260.64	0.913
2269.8	0.9098
2278.96	0.909
2288.12	0.9085
2297.28	0.907
2306.43	0.909
2315.59	0.91
2324.75	0.911
2333.91	0.911
2343.06	0.911
2352.22	0.911
2361.38	0.911
2370.54	0.911
2379.7	0.911
2388.85	0.907
2398.01	0.905
2407.17	0.9048
2416.33	0.904
2425.49	0.904
2434.64	0.9018
2443.8	0.901
2452.96	0.901
2462.12	0.901
2471.27	0.901
2480.43	0.901
2489.59	0.901
2498.75	0.901
2507.91	0.901
2517.06	0.901
2526.22	0.9
2535.38	0.9
2544.54	0.8978
2553.69	0.8938
2562.85	0.8905
2572.01	0.888
2581.17	0.887
2590.33	0.885
2599.48	0.8838
2608.64	0.878
2617.8	0.874
2626.96	0.8698
2636.11	0.862
2645.27	0.8568
2654.43	0.8475
2663.59	0.8385
2672.75	0.8318
2681.9	0.823
2691.06	0.817
2700.22	0.8105
2709.38	0.802
2718.53	0.8008
2727.69	0.8
2736.85	0.798
2746.01	0.7975
2755.17	0.796
2764.32	0.7945
2773.48	0.791
2782.64	0.7878
2791.8	0.7755
2800.95	0.7615
2810.11	0.745
2819.27	0.7259
2828.43	0.7091
2837.59	0.6923
2846.74	0.6632
2855.9	0.6056
2865.06	0.575
2874.22	0.577
2883.37	0.5782
2892.53	0.579
2901.69	0.5575
2910.85	0.4996
2920.01	0.4509
2929.16	0.4073
2938.32	0.389
2947.48	0.387
2956.64	0.386
2965.79	0.4268
2974.95	0.4873
2984.11	0.56
2993.27	0.566
3002.43	0.5665
3011.58	0.5633
3020.74	0.5565
3029.9	0.5298
3039.06	0.5101
3048.22	0.4875
3057.37	0.4711
3066.53	0.4568
3075.69	0.4277
3084.85	0.3775
3094	0.3518
3103.16	0.3314
3112.32	0.2718
3121.48	0.2271
3130.64	0.202
3139.79	0.1948
3148.95	0.191
3158.11	0.1932
3167.27	0.2012
3176.42	0.2219
3185.58	0.2517
3194.74	0.2737
3203.9	0.2992
3213.06	0.303
3222.21	0.3015
3231.37	0.2833
3240.53	0.2711
3249.69	0.2583
3258.84	0.25
3268	0.245
3277.16	0.2418
3286.32	0.2315
3295.48	0.23
3304.63	0.2347
3313.79	0.256
3322.95	0.2829
3332.11	0.3047
3341.26	0.3212
3350.42	0.3292
3359.58	0.3342
3368.74	0.3395
3377.9	0.3472
3387.05	0.3552
3396.21	0.356
3405.37	0.3548
3414.53	0.3425
3423.68	0.3215
3432.84	0.317
3442	0.3175
3451.16	0.3542
3460.32	0.4287
3469.47	0.4611
3478.63	0.5133
3487.79	0.5479
3496.95	0.5759
3506.1	0.6187
3515.26	0.6717
3524.42	0.6937
3533.58	0.7277
3542.74	0.7472
3551.89	0.7655
3561.05	0.776
3570.21	0.7857
3579.37	0.7962
3588.52	0.8052
3597.68	0.8155
3606.84	0.8305
3616	0.8421
3625.16	0.8595
3634.31	0.8692
3643.47	0.8847
3652.63	0.8932
3661.79	0.905
3670.95	0.9062
3680.1	0.907
3689.26	0.907
3698.42	0.907
3707.58	0.907
3716.73	0.907
3725.89	0.909
3735.05	0.9092
3744.21	0.91
3753.37	0.91
3762.52	0.91
3771.68	0.911
3780.84	0.911
3790	0.911
3799.15	0.911
3808.31	0.91
3817.47	0.9098
3826.63	0.906
3835.79	0.906
3844.94	0.905
3854.1	0.905
3863.26	0.906
3872.42	0.905
3881.57	0.905
3890.73	0.905
3899.89	0.905
3909.05	0.905
3918.21	0.904
3927.36	0.9
3936.52	0.898
3945.68	0.897
3954.84	0.897
3963.99	0.897
3973.15	0.897
3982.31	0.896
3991.47	0.894
4000.63	0.897
4009.78	0.897
