Infrared Spectrum: P-PHENYLAZO CARBANILIC ACID,n-PENTYL ESTER
Formula: C18 H21 N3 O2
CAS: 93995-95-0
State: SOLID (1.9 mg / 100 mg KBr)
Melting point: 110 C
Class: COBLENTZ
Instrument: Not specified, most likely a grating spectrometer.
Sampling: TRANSMISSION
Resolution: 4
Origin: CITRUS EXPERIMENT STATION, UNIVERSITY OF FLORIDA (G. EDWARDS)
MICROMETERS	TRANSMITTANCE
2.02	0.422
2.05311	0.429
2.08622	0.433
2.11934	0.441
2.15245	0.445
2.18556	0.452
2.21867	0.454
2.25179	0.464
2.2849	0.466
2.31801	0.476
2.35112	0.48
2.38423	0.486
2.41735	0.501
2.45046	0.506
2.48357	0.51
2.51668	0.516
2.5498	0.522
2.58291	0.529
2.61602	0.532
2.64913	0.533
2.68225	0.534
2.71536	0.534
2.74847	0.533
2.78158	0.534
2.81469	0.53
2.84781	0.53
2.88092	0.526
2.91403	0.501
2.94714	0.324
2.98026	0.372
3.01337	0.497
3.04648	0.541
3.07959	0.561
3.1127	0.57
3.14582	0.586
3.17893	0.581
3.21204	0.572
3.24515	0.549
3.27827	0.565
3.31138	0.57
3.34449	0.418
3.3776	0.368
3.41072	0.438
3.44383	0.449
3.47694	0.472
3.51005	0.585
3.54316	0.606
3.57628	0.609
3.60939	0.614
3.6425	0.624
3.67561	0.636
3.70873	0.642
3.74184	0.644
3.77495	0.645
3.80806	0.648
3.84117	0.649
3.87429	0.653
3.9074	0.662
3.94051	0.67
3.97362	0.67
4.00674	0.673
4.03985	0.677
4.07296	0.68
4.10607	0.686
4.13919	0.688
4.1723	0.689
4.20541	0.701
4.23852	0.702
4.27163	0.702
4.30475	0.702
4.33786	0.702
4.37097	0.702
4.40408	0.709
4.4372	0.713
4.47031	0.72
4.50342	0.721
4.53653	0.721
4.56964	0.722
4.60276	0.73
4.63587	0.73
4.66898	0.733
4.70209	0.732
4.73521	0.733
4.76832	0.737
4.80143	0.737
4.83454	0.742
4.86766	0.744
4.90077	0.745
4.93388	0.744
4.96699	0.748
5.0001	0.748
5.03322	0.749
5.06633	0.75
5.09944	0.748
5.13255	0.754
5.16567	0.749
5.19878	0.746
5.23189	0.761
5.265	0.769
5.29811	0.777
5.33123	0.78
5.36434	0.781
5.39745	0.781
5.43056	0.78
5.46368	0.776
5.49679	0.766
5.5299	0.761
5.56301	0.77
5.59613	0.766
5.62924	0.769
5.66235	0.73
5.69546	0.672
5.72857	0.597
5.76169	0.533
5.7948	0.101
5.82791	0.182
5.86102	0.422
5.89414	0.514
5.92725	0.657
5.96036	0.674
5.99347	0.694
6.02658	0.722
6.0597	0.748
6.09281	0.73
6.12592	0.701
6.15903	0.59
6.19215	0.29
6.22526	0.322
6.25837	0.501
6.29148	0.644
6.3246	0.678
6.35771	0.612
6.39082	0.349
6.42393	0.216
6.45704	0.18
6.49016	0.224
6.52327	0.41
6.55638	0.534
6.58949	0.585
6.62261	0.622
6.65572	0.652
6.68883	0.674
6.72194	0.674
6.75505	0.52
6.78817	0.518
6.82128	0.438
6.85439	0.606
6.8875	0.586
6.92062	0.432
6.95373	0.51
6.98684	0.653
7.01995	0.601
7.05307	0.462
7.08618	0.585
7.11929	0.685
7.1524	0.689
7.18551	0.678
7.21863	0.665
7.25174	0.621
7.28485	0.689
7.31796	0.717
7.35108	0.734
7.38419	0.737
7.4173	0.734
7.45041	0.709
7.48352	0.641
7.51664	0.521
7.54975	0.582
7.58286	0.573
7.61597	0.452
7.64909	0.402
7.6822	0.473
7.71531	0.629
7.74842	0.7
7.78154	0.704
7.81465	0.674
7.84776	0.606
7.88087	0.55
7.91398	0.394
7.9471	0.43
7.98021	0.393
8.01332	0.266
8.04643	0.088
8.07955	0.089
8.11266	0.229
8.14577	0.305
8.17888	0.413
8.21199	0.488
8.24511	0.525
8.27822	0.604
8.31133	0.649
8.34444	0.676
8.37756	0.692
8.41067	0.654
8.44378	0.702
8.47689	0.73
8.51001	0.734
8.54312	0.736
8.57623	0.725
8.60934	0.693
8.64245	0.445
8.67557	0.53
8.70868	0.49
8.74179	0.472
8.7749	0.542
8.80802	0.668
8.84113	0.701
8.87424	0.721
8.90735	0.749
8.94046	0.762
8.97358	0.75
9.00669	0.693
9.0398	0.609
9.07291	0.704
9.10603	0.761
9.13914	0.776
9.17225	0.769
9.20536	0.757
9.23848	0.692
9.27159	0.461
9.3047	0.29
9.33781	0.385
9.37092	0.472
9.40404	0.57
9.43715	0.664
9.47026	0.685
9.50337	0.66
9.53649	0.664
9.5696	0.724
9.60271	0.761
9.63582	0.784
9.66893	0.792
9.70205	0.797
9.73516	0.802
9.76827	0.806
9.80138	0.797
9.8345	0.677
9.86761	0.726
9.90072	0.738
9.93383	0.753
9.96695	0.8
10.0001	0.802
10.0332	0.809
10.0663	0.821
10.0994	0.824
10.1325	0.834
10.1656	0.834
10.1987	0.822
10.2318	0.802
10.265	0.781
10.2981	0.762
10.3312	0.762
10.3643	0.813
10.3974	0.832
10.4305	0.834
10.4636	0.84
10.4967	0.844
10.5299	0.85
10.563	0.854
10.5961	0.858
10.6292	0.864
10.6623	0.865
10.6954	0.865
10.7285	0.862
10.7616	0.85
10.7948	0.849
10.8279	0.826
10.861	0.77
10.8941	0.741
10.9272	0.826
10.9603	0.852
10.9934	0.864
11.0265	0.87
11.0596	0.869
11.0928	0.87
11.1259	0.862
11.159	0.861
11.1921	0.852
11.2252	0.86
11.2583	0.872
11.2914	0.872
11.3245	0.873
11.3577	0.877
11.3908	0.872
11.4239	0.88
11.457	0.881
11.4901	0.869
11.5232	0.862
11.5563	0.856
11.5894	0.844
11.6226	0.829
11.6557	0.806
11.6888	0.78
11.7219	0.756
11.755	0.726
11.7881	0.665
11.8212	0.574
11.8543	0.428
11.8875	0.442
11.9206	0.576
11.9537	0.656
11.9868	0.652
12.0199	0.657
12.053	0.713
12.0861	0.776
12.1192	0.804
12.1524	0.833
12.1855	0.837
12.2186	0.846
12.2517	0.854
12.2848	0.857
12.3179	0.853
12.351	0.829
12.3841	0.824
12.4173	0.841
12.4504	0.864
12.4835	0.872
12.5166	0.874
12.5497	0.88
12.5828	0.881
12.6159	0.877
12.649	0.872
12.6822	0.87
12.7153	0.87
12.7484	0.869
12.7815	0.865
12.8146	0.864
12.8477	0.865
12.8808	0.841
12.9139	0.824
12.947	0.786
12.9802	0.726
13.0133	0.693
13.0464	0.601
13.0795	0.4
13.1126	0.372
13.1457	0.513
13.1788	0.649
13.2119	0.717
13.2451	0.726
13.2782	0.744
13.3113	0.788
13.3444	0.81
13.3775	0.834
13.4106	0.838
13.4437	0.848
13.4768	0.852
13.51	0.852
13.5431	0.854
13.5762	0.848
13.6093	0.842
13.6424	0.822
13.6755	0.78
13.7086	0.736
13.7417	0.753
13.7749	0.797
13.808	0.821
13.8411	0.833
13.8742	0.81
13.9073	0.784
13.9404	0.738
13.9735	0.724
14.0066	0.75
14.0398	0.806
14.0729	0.821
14.106	0.829
14.1391	0.83
14.1722	0.83
14.2053	0.829
14.2384	0.829
14.2715	0.82
14.3047	0.816
14.3378	0.801
14.3709	0.79
14.404	0.776
14.4371	0.744
14.4702	0.716
14.5033	0.65
14.5364	0.534
14.5696	0.426
14.6027	0.409
14.6358	0.456
14.6689	0.554
14.702	0.633
14.7351	0.696
14.7682	0.725
14.8013	0.732
14.8344	0.73
14.8676	0.725
14.9007	0.716
14.9338	0.674
14.9669	0.676
15	0.706
