Infrared Spectrum: O-NITRO CARBANILIC ACID, n-UNDECYL ESTER
Formula: C18 H28 N2 O4
CAS: 93999-88-3
State: SOLID (1.6 mg / 100 mg KBr)
Melting point: 47.5-48 C
Class: COBLENTZ
Instrument: Not specified, most likely a grating spectrometer.
Sampling: TRANSMISSION
Resolution: 4
Origin: CITRUS EXPERIMENT STATION, UNIVERSITY OF FLORIDA (G. EDWARDS)
MICROMETERS	TRANSMITTANCE
2.027	0.841
2.06019	0.841
2.09338	0.85
2.12657	0.849
2.15976	0.846
2.19295	0.846
2.22614	0.852
2.25933	0.85
2.29252	0.852
2.32571	0.854
2.3589	0.852
2.39209	0.865
2.42528	0.865
2.45847	0.865
2.49166	0.862
2.52485	0.864
2.55804	0.877
2.59123	0.88
2.62442	0.87
2.65761	0.885
2.6908	0.889
2.72399	0.881
2.75717	0.881
2.79036	0.884
2.82355	0.89
2.85674	0.884
2.88993	0.874
2.92312	0.868
2.95631	0.797
2.9895	0.72
3.02269	0.877
3.05588	0.905
3.08907	0.902
3.12226	0.909
3.15545	0.902
3.18864	0.886
3.22183	0.894
3.25502	0.901
3.28821	0.889
3.3214	0.868
3.35459	0.682
3.38778	0.472
3.42097	0.641
3.45416	0.685
3.48735	0.638
3.52054	0.852
3.55373	0.873
3.58692	0.9
3.62011	0.9
3.6533	0.898
3.68649	0.906
3.71968	0.913
3.75287	0.909
3.78606	0.917
3.81925	0.922
3.85244	0.914
3.88563	0.921
3.91882	0.918
3.95201	0.928
3.9852	0.928
4.01839	0.918
4.05158	0.913
4.08477	0.929
4.11796	0.918
4.15115	0.922
4.18434	0.929
4.21752	0.92
4.25071	0.929
4.2839	0.929
4.31709	0.929
4.35028	0.932
4.38347	0.936
4.41666	0.933
4.44985	0.929
4.48304	0.93
4.51623	0.924
4.54942	0.933
4.58261	0.937
4.6158	0.93
4.64899	0.936
4.68218	0.945
4.71537	0.942
4.74856	0.944
4.78175	0.945
4.81494	0.95
4.84813	0.945
4.88132	0.942
4.91451	0.936
4.9477	0.941
4.98089	0.94
5.01408	0.933
5.04727	0.937
5.08046	0.936
5.11365	0.933
5.14684	0.933
5.18003	0.944
5.21322	0.944
5.24641	0.946
5.2796	0.938
5.31279	0.94
5.34598	0.932
5.37917	0.94
5.41236	0.917
5.44555	0.933
5.47874	0.926
5.51193	0.932
5.54512	0.921
5.57831	0.922
5.6115	0.913
5.64468	0.91
5.67787	0.801
5.71106	0.508
5.74425	0.469
5.77744	0.721
5.81063	0.874
5.84382	0.91
5.87701	0.918
5.9102	0.922
5.94339	0.934
5.97658	0.92
6.00977	0.913
6.04296	0.893
6.07615	0.89
6.10934	0.837
6.14253	0.768
6.17572	0.48
6.20891	0.521
6.2421	0.745
6.27529	0.512
6.30848	0.721
6.34167	0.85
6.37486	0.848
6.40805	0.768
6.44124	0.76
6.47443	0.69
6.50762	0.569
6.54081	0.34
6.574	0.261
6.60719	0.398
6.64038	0.489
6.67357	0.629
6.70676	0.696
6.73995	0.557
6.77314	0.674
6.80633	0.645
6.83952	0.632
6.87271	0.694
6.9059	0.674
6.93909	0.601
6.97228	0.693
7.00547	0.762
7.03866	0.818
7.07185	0.844
7.10503	0.856
7.13822	0.861
7.17141	0.845
7.2046	0.809
7.23779	0.83
7.27098	0.852
7.30417	0.834
7.33736	0.801
7.37055	0.737
7.40374	0.564
7.43693	0.17
7.47012	0.236
7.50331	0.376
7.5365	0.516
7.56969	0.636
7.60288	0.678
7.63607	0.684
7.66926	0.701
7.70245	0.701
7.73564	0.701
7.76883	0.681
7.80202	0.666
7.83521	0.67
7.8684	0.662
7.90159	0.745
7.93478	0.737
7.96797	0.65
8.00116	0.432
8.03435	0.181
8.06754	0.352
8.10073	0.356
8.13392	0.564
8.16711	0.706
8.2003	0.73
8.23349	0.716
8.26668	0.612
8.29987	0.406
8.33306	0.488
8.36625	0.634
8.39944	0.721
8.43263	0.764
8.46582	0.786
8.49901	0.805
8.53219	0.81
8.56538	0.824
8.59857	0.853
8.63176	0.865
8.66495	0.852
8.69814	0.77
8.73133	0.84
8.76452	0.881
8.79771	0.892
8.8309	0.904
8.86409	0.901
8.89728	0.905
8.93047	0.901
8.96366	0.881
8.99685	0.877
9.03004	0.841
9.06323	0.754
9.09642	0.716
9.12961	0.805
9.1628	0.804
9.19599	0.794
9.22918	0.825
9.26237	0.852
9.29556	0.862
9.32875	0.852
9.36194	0.76
9.39513	0.742
9.42832	0.71
9.46151	0.585
9.4947	0.657
9.52789	0.764
9.56108	0.786
9.59427	0.786
9.62746	0.801
9.66065	0.724
9.69384	0.766
9.72703	0.837
9.76022	0.868
9.79341	0.87
9.8266	0.889
9.85979	0.909
9.89298	0.921
9.92617	0.917
9.95935	0.929
9.99254	0.918
10.0257	0.922
10.0589	0.921
10.0921	0.921
10.1253	0.92
10.1585	0.913
10.1917	0.922
10.2249	0.929
10.2581	0.922
10.2913	0.909
10.3244	0.878
10.3576	0.872
10.3908	0.886
10.424	0.909
10.4572	0.914
10.4904	0.917
10.5236	0.928
10.5568	0.928
10.59	0.929
10.6232	0.934
10.6563	0.936
10.6895	0.929
10.7227	0.942
10.7559	0.937
10.7891	0.924
10.8223	0.944
10.8555	0.934
10.8887	0.938
10.9219	0.948
10.955	0.938
10.9882	0.944
11.0214	0.948
11.0546	0.953
11.0878	0.936
11.121	0.936
11.1542	0.941
11.1874	0.938
11.2206	0.933
11.2538	0.932
11.2869	0.934
11.3201	0.94
11.3533	0.938
11.3865	0.934
11.4197	0.924
11.4529	0.912
11.4861	0.873
11.5193	0.777
11.5525	0.697
11.5857	0.798
11.6188	0.866
11.652	0.893
11.6852	0.912
11.7184	0.909
11.7516	0.913
11.7848	0.92
11.818	0.896
11.8512	0.877
11.8844	0.849
11.9176	0.838
11.9507	0.862
11.9839	0.902
12.0171	0.913
12.0503	0.918
12.0835	0.921
12.1167	0.932
12.1499	0.925
12.1831	0.934
12.2163	0.932
12.2494	0.926
12.2826	0.933
12.3158	0.932
12.349	0.932
12.3822	0.924
12.4154	0.924
12.4486	0.936
12.4818	0.929
12.515	0.938
12.5482	0.933
12.5813	0.918
12.6145	0.896
12.6477	0.824
12.6809	0.665
12.7141	0.701
12.7473	0.817
12.7805	0.876
12.8137	0.888
12.8469	0.904
12.8801	0.914
12.9132	0.894
12.9464	0.882
12.9796	0.864
13.0128	0.825
13.046	0.796
13.0792	0.778
13.1124	0.792
13.1456	0.83
13.1788	0.868
13.212	0.894
13.2451	0.885
13.2783	0.874
13.3115	0.852
13.3447	0.844
13.3779	0.804
13.4111	0.628
13.4443	0.509
13.4775	0.596
13.5107	0.714
13.5439	0.793
13.577	0.834
13.6102	0.849
13.6434	0.874
13.6766	0.884
13.7098	0.893
13.743	0.898
13.7762	0.886
13.8094	0.881
13.8426	0.872
13.8757	0.841
13.9089	0.817
13.9421	0.804
13.9753	0.838
14.0085	0.861
14.0417	0.869
14.0749	0.881
14.1081	0.877
14.1413	0.87
14.1745	0.877
14.2076	0.874
14.2408	0.872
14.274	0.869
14.3072	0.866
14.3404	0.862
14.3736	0.857
14.4068	0.853
14.44	0.842
14.4732	0.826
14.5064	0.822
14.5395	0.805
14.5727	0.801
14.6059	0.805
14.6391	0.794
14.6723	0.762
14.7055	0.752
14.7387	0.742
14.7719	0.745
14.8051	0.749
14.8383	0.761
14.8714	0.754
14.9046	0.741
14.9378	0.71
14.971	0.72
15.0042	0.742
