Infrared Spectrum: BIS-(n-PENTANESULFONYL METHYL)-2-THIAZOLYL DISULFIDE
Formula: C18 H28 N2 O4 S6
CAS: 93999-94-1
State: SOLID (KBr PELLET)
Melting point: 182 C
Class: COBLENTZ
Instrument: Not specified, most likely a prism, grating, or hybrid spectrometer.
Sampling: TRANSMISSION
Resolution: 4
Origin: EASTMAN KODAK COMPANY, RESEARCH LABORATORIES, ROCHESTER, N.Y.
MICROMETERS	TRANSMITTANCE
2.027	0.622
2.06702	0.617
2.10704	0.62
2.14706	0.61
2.18708	0.604
2.2271	0.6
2.26712	0.599
2.30713	0.602
2.34715	0.604
2.38717	0.609
2.42719	0.612
2.46721	0.615
2.50723	0.62
2.54725	0.625
2.58727	0.628
2.62729	0.63
2.66731	0.638
2.70733	0.642
2.74735	0.633
2.78737	0.602
2.82739	0.543
2.8674	0.515
2.90742	0.499
2.94744	0.497
2.98746	0.548
3.02748	0.582
3.0675	0.6
3.10752	0.612
3.14754	0.617
3.18756	0.568
3.22758	0.582
3.2676	0.599
3.30762	0.576
3.34764	0.492
3.38765	0.21
3.42767	0.353
3.46769	0.466
3.50771	0.384
3.54773	0.605
3.58775	0.63
3.62777	0.66
3.66779	0.669
3.70781	0.678
3.74783	0.686
3.78785	0.691
3.82787	0.697
3.86789	0.706
3.90791	0.709
3.94792	0.714
3.98794	0.717
4.02796	0.719
4.06798	0.722
4.108	0.729
4.14802	0.733
4.18804	0.745
4.22806	0.729
4.26808	0.725
4.3081	0.737
4.34812	0.75
4.38814	0.745
4.42816	0.752
4.46817	0.756
4.50819	0.765
4.54821	0.763
4.58823	0.76
4.62825	0.761
4.66827	0.758
4.70829	0.761
4.74831	0.76
4.78833	0.761
4.82835	0.758
4.86837	0.761
4.90839	0.761
4.94841	0.763
4.98842	0.765
5.02844	0.766
5.06846	0.77
5.10848	0.775
5.1485	0.778
5.18852	0.781
5.22854	0.786
5.26856	0.791
5.30858	0.798
5.3486	0.791
5.38862	0.807
5.42864	0.799
5.46866	0.802
5.50868	0.812
5.54869	0.802
5.58871	0.811
5.62873	0.821
5.66875	0.816
5.70877	0.816
5.74879	0.804
5.78881	0.811
5.82883	0.793
5.86885	0.814
5.90887	0.812
5.94889	0.807
5.98891	0.809
6.02893	0.806
6.06894	0.786
6.10896	0.771
6.14898	0.776
6.189	0.783
6.22902	0.801
6.26904	0.812
6.30906	0.825
6.34908	0.822
6.3891	0.835
6.42912	0.814
6.46914	0.832
6.50916	0.821
6.54918	0.807
6.5892	0.615
6.62921	0.637
6.66923	0.773
6.70925	0.786
6.74927	0.791
6.78929	0.733
6.82931	0.605
6.86933	0.604
6.90935	0.683
6.94937	0.745
6.98939	0.768
7.02941	0.692
7.06943	0.551
7.10945	0.509
7.14946	0.348
7.18948	0.643
7.2295	0.745
7.26952	0.742
7.30954	0.758
7.34956	0.798
7.38958	0.804
7.4296	0.798
7.46962	0.784
7.50964	0.756
7.54966	0.683
7.58968	0.426
7.6297	0.256
7.66972	0.185
7.70973	0.292
7.74975	0.264
7.78977	0.113
7.82979	0.178
7.86981	0.357
7.90983	0.517
7.94985	0.448
7.98987	0.451
8.02989	0.623
8.06991	0.719
8.10993	0.722
8.14995	0.729
8.18997	0.778
8.22998	0.796
8.27	0.804
8.31002	0.807
8.35004	0.796
8.39006	0.781
8.43008	0.788
8.4701	0.788
8.51012	0.793
8.55014	0.802
8.59016	0.793
8.63018	0.773
8.6702	0.742
8.71022	0.673
8.75024	0.502
8.79025	0.108
8.83027	0.108
8.87029	0.188
8.91031	0.382
8.95033	0.435
8.99035	0.39
9.03037	0.397
9.07039	0.563
9.11041	0.704
9.15043	0.753
9.19045	0.77
9.23047	0.773
9.27049	0.778
9.3105	0.791
9.35052	0.799
9.39054	0.799
9.43056	0.783
9.47058	0.707
9.5106	0.551
9.55062	0.362
9.59064	0.18
9.63066	0.256
9.67068	0.451
9.7107	0.648
9.75072	0.72
9.79074	0.742
9.83076	0.761
9.87077	0.791
9.91079	0.804
9.95081	0.802
9.99083	0.763
10.0309	0.798
10.0709	0.817
10.1109	0.832
10.1509	0.835
10.1909	0.839
10.2309	0.84
10.271	0.839
10.311	0.834
10.351	0.827
10.391	0.824
10.431	0.824
10.4711	0.829
10.5111	0.832
10.5511	0.83
10.5911	0.789
10.6311	0.684
10.6712	0.798
10.7112	0.855
10.7512	0.871
10.7912	0.88
10.8312	0.881
10.8713	0.891
10.9113	0.894
10.9513	0.894
10.9913	0.889
11.0313	0.885
11.0714	0.881
11.1114	0.868
11.1514	0.832
11.1914	0.768
11.2314	0.76
11.2714	0.842
11.3115	0.87
11.3515	0.889
11.3915	0.886
11.4315	0.893
11.4715	0.891
11.5116	0.894
11.5516	0.883
11.5916	0.878
11.6316	0.86
11.6716	0.806
11.7117	0.72
11.7517	0.745
11.7917	0.806
11.8317	0.847
11.8717	0.855
11.9118	0.862
11.9518	0.855
11.9918	0.848
12.0318	0.834
12.0718	0.847
12.1119	0.863
12.1519	0.868
12.1919	0.871
12.2319	0.87
12.2719	0.866
12.3119	0.868
12.352	0.865
12.392	0.863
12.432	0.862
12.472	0.85
12.512	0.845
12.5521	0.837
12.5921	0.824
12.6321	0.807
12.6721	0.773
12.7121	0.722
12.7522	0.702
12.7922	0.714
12.8322	0.743
12.8722	0.752
12.9122	0.748
12.9523	0.727
12.9923	0.697
13.0323	0.638
13.0723	0.569
13.1123	0.507
13.1524	0.49
13.1924	0.495
13.2324	0.558
13.2724	0.627
13.3124	0.683
13.3524	0.733
13.3925	0.755
13.4325	0.771
13.4725	0.776
13.5125	0.768
13.5525	0.755
13.5926	0.75
13.6326	0.732
13.6726	0.699
13.7126	0.668
13.7526	0.697
13.7927	0.733
13.8327	0.76
13.8727	0.781
13.9127	0.798
13.9527	0.807
13.9928	0.816
14.0328	0.825
14.0728	0.83
14.1128	0.83
14.1528	0.819
14.1929	0.789
14.2329	0.748
14.2729	0.686
14.3129	0.64
14.3529	0.656
14.393	0.707
14.433	0.75
14.473	0.768
14.513	0.776
14.553	0.781
14.593	0.791
14.6331	0.801
14.6731	0.801
14.7131	0.796
14.7531	0.784
14.7931	0.779
14.8332	0.756
14.8732	0.669
14.9132	0.628
14.9532	0.569
14.9932	0.532
15.0333	0.586
15.0733	0.64
15.1133	0.696
15.1533	0.709
15.1933	0.717
15.2334	0.711
15.2734	0.714
15.3134	0.72
15.3534	0.72
15.3934	0.717
15.4335	0.712
15.4735	0.707
15.5135	0.712
15.5535	0.714
15.5935	0.714
15.6335	0.711
15.6736	0.712
15.7136	0.707
15.7536	0.706
15.7936	0.704
15.8336	0.706
15.8737	0.709
15.9137	0.709
15.9537	0.707
15.9937	0.707
