Infrared Spectrum: P-SEC-AMYL PHENOL
Formula: C11 H16 O
CAS: 94-06-4
State: SOLUTION (10% CCl4 FOR 5000-1330, 10% CS2 FOR 1330-625 CM^-^1)
Class: COBLENTZ
Instrument: Not specified, most likely a prism, grating, or hybrid spectrometer.
Sampling: TRANSMISSION
Path length: 0.0119 CM, 0.0115 CM
Resolution: 4
MICROMETERS	TRANSMITTANCE
2.027	0.886
2.06812	0.89
2.10924	0.89
2.15035	0.89
2.19147	0.89
2.23259	0.886
2.27371	0.878
2.31482	0.875
2.35594	0.88
2.39706	0.886
2.43818	0.89
2.4793	0.895
2.52041	0.898
2.56153	0.897
2.60265	0.902
2.64377	0.91
2.68488	0.904
2.726	0.852
2.76712	0.618
2.80824	0.642
2.84936	0.59
2.89047	0.513
2.93159	0.5
2.97271	0.493
3.01383	0.553
3.05494	0.618
3.09606	0.703
3.13718	0.767
3.1783	0.808
3.21942	0.804
3.26053	0.738
3.30165	0.647
3.34277	0.515
3.38389	0.082
3.425	0.28
3.46612	0.356
3.50724	0.71
3.54836	0.842
3.58948	0.876
3.63059	0.886
3.67171	0.881
3.71283	0.892
3.75395	0.897
3.79506	0.905
3.83618	0.904
3.8773	0.905
3.91842	0.914
3.95954	0.916
4.00065	0.917
4.04177	0.916
4.08289	0.907
4.12401	0.916
4.16512	0.926
4.20624	0.914
4.24736	0.91
4.28848	0.917
4.3296	0.928
4.37071	0.931
4.41183	0.945
4.45295	0.955
4.49407	0.955
4.53518	0.96
4.5763	0.96
4.61742	0.96
4.65854	0.96
4.69966	0.96
4.74077	0.958
4.78189	0.958
4.82301	0.952
4.86413	0.952
4.90525	0.953
4.94636	0.953
4.98748	0.953
5.0286	0.952
5.06972	0.96
5.11083	0.96
5.15195	0.96
5.19307	0.957
5.23419	0.95
5.27531	0.922
5.31642	0.888
5.35754	0.912
5.39866	0.931
5.43978	0.943
5.48089	0.953
5.52201	0.957
5.56313	0.957
5.60425	0.953
5.64537	0.95
5.68648	0.934
5.7276	0.931
5.76872	0.946
5.80984	0.953
5.85095	0.95
5.89207	0.941
5.93319	0.941
5.97431	0.938
6.01543	0.921
6.05654	0.9
6.09766	0.871
6.13878	0.712
6.1799	0.412
6.22101	0.462
6.26213	0.469
6.30325	0.568
6.34437	0.585
6.38549	0.565
6.4266	0.511
6.46772	0.498
6.50884	0.52
6.54996	0.498
6.59107	0.297
6.63219	0.291
6.67331	0.515
6.71443	0.577
6.75555	0.595
6.79666	0.44
6.83778	0.325
6.8789	0.344
6.92002	0.455
6.96113	0.623
7.00225	0.727
7.04337	0.811
7.08449	0.839
7.12561	0.835
7.16672	0.782
7.20784	0.582
7.24896	0.503
7.29008	0.602
7.33119	0.604
7.37231	0.607
7.41343	0.631
7.45455	0.631
7.49567	0.587
7.53678	0.577
7.5779	0.705
7.61902	0.727
7.66014	0.715
7.70125	0.715
7.74237	0.714
7.78349	0.707
7.82461	0.669
7.86573	0.535
7.90684	0.345
7.94796	0.212
7.98908	0.243
8.0302	0.27
8.07131	0.275
8.11243	0.287
8.15355	0.297
8.19467	0.301
8.23579	0.316
8.2769	0.332
8.31802	0.339
8.35914	0.342
8.40026	0.313
8.44137	0.229
8.48249	0.14
8.52361	0.097
8.56473	0.229
8.60585	0.402
8.64696	0.513
8.68808	0.563
8.7292	0.585
8.77032	0.599
8.81143	0.64
8.85255	0.695
8.89367	0.715
8.93479	0.717
8.97591	0.695
9.01702	0.648
9.05814	0.625
9.09926	0.631
9.14038	0.691
9.18149	0.756
9.22261	0.784
9.26373	0.791
9.30485	0.791
9.34597	0.794
9.38708	0.821
9.4282	0.844
9.46932	0.851
9.51044	0.854
9.55155	0.854
9.59267	0.851
9.63379	0.849
9.67491	0.873
9.71603	0.885
9.75714	0.885
9.79826	0.885
9.83938	0.833
9.8805	0.827
9.92162	0.852
9.96273	0.856
10.0039	0.866
10.045	0.881
10.0861	0.883
10.1272	0.885
10.1683	0.909
10.2094	0.919
10.2506	0.921
10.2917	0.921
10.3328	0.922
10.3739	0.919
10.415	0.91
10.4561	0.902
10.4973	0.897
10.5384	0.892
10.5795	0.888
10.6206	0.886
10.6617	0.885
10.7029	0.88
10.744	0.875
10.7851	0.871
10.8262	0.871
10.8673	0.875
10.9084	0.878
10.9496	0.88
10.9907	0.885
11.0318	0.888
11.0729	0.892
11.114	0.892
11.1551	0.892
11.1963	0.88
11.2374	0.847
11.2785	0.828
11.3196	0.808
11.3607	0.791
11.4019	0.77
11.443	0.751
11.4841	0.738
11.5252	0.727
11.5663	0.715
11.6074	0.712
11.6486	0.695
11.6897	0.679
11.7308	0.672
11.7719	0.657
11.813	0.616
11.8542	0.577
11.8953	0.549
11.9364	0.486
11.9775	0.373
12.0186	0.236
12.0597	0.111
12.1009	0.08
12.142	0.188
12.1831	0.344
12.2242	0.47
12.2653	0.527
12.3064	0.551
12.3476	0.554
12.3887	0.556
12.4298	0.613
12.4709	0.7
12.512	0.75
12.5532	0.768
12.5943	0.777
12.6354	0.784
12.6765	0.791
12.7176	0.789
12.7587	0.775
12.7999	0.758
12.841	0.744
12.8821	0.736
12.9232	0.741
12.9643	0.76
13.0054	0.767
13.0466	0.767
13.0877	0.767
13.1288	0.765
13.1699	0.748
13.211	0.707
13.2522	0.645
13.2933	0.549
13.3344	0.464
13.3755	0.429
13.4166	0.46
13.4577	0.544
13.4989	0.609
13.54	0.652
13.5811	0.676
13.6222	0.702
13.6633	0.707
13.7045	0.707
13.7456	0.707
13.7867	0.703
13.8278	0.702
13.8689	0.705
13.91	0.707
13.9512	0.707
13.9923	0.698
14.0334	0.69
14.0745	0.676
14.1156	0.666
14.1567	0.652
14.1979	0.631
14.239	0.613
14.2801	0.589
14.3212	0.571
14.3623	0.568
14.4035	0.57
14.4446	0.57
14.4857	0.565
14.5268	0.563
14.5679	0.563
14.609	0.571
14.6502	0.575
14.6913	0.578
14.7324	0.577
14.7735	0.571
14.8146	0.566
14.8557	0.558
14.8969	0.549
14.938	0.539
14.9791	0.53
15.0202	0.522
15.0613	0.511
15.1025	0.501
15.1436	0.491
15.1847	0.481
15.2258	0.465
15.2669	0.453
15.308	0.441
15.3492	0.436
15.3903	0.433
15.4314	0.424
15.4725	0.416
15.5136	0.409
15.5548	0.402
15.5959	0.395
15.637	0.385
15.6781	0.376
15.7192	0.371
15.7603	0.366
15.8015	0.357
15.8426	0.351
15.8837	0.347
