Infrared Spectrum: Benzocaine
Formula: C 9 H 11 N O 2
CAS: 94-09-7
State: gas
Instrument: HP-GC/MS/IRD
Origin: NIST Mass Spectrometry Data Center
1/CM	ABSORBANCE
550	0.0020979
562	0.0012099
574	0.0017982
586	0.0022644
598	0.0024864
610	0.005328
622	0.0042513
634	0.0017649
646	0.00222
658	0.0037296
670	0.0064158
682	0.0067266
694	0.0059829
706	0.004995
718	0.0034965
730	0.0022311
742	0.0022533
754	0.0041514
766	0.0073482
778	0.0065268
790	0.0033966
802	0.0020202
814	0.0018315
826	0.0032634
838	0.0054945
850	0.0041847
862	0.0019536
874	0.0011211
886	0.0006216
898	0.0002997
910	6.66e-05
922	0
934	0.0001332
946	0.0004551
958	0.000777
970	0.0008769
982	0.0007437
994	0.0009879
1006	0.0023199
1018	0.0044511
1030	0.002886
1042	0.0021423
1054	0.0031635
1066	0.0045288
1078	0.0079587
1090	0.0180264
1102	0.0470973
1114	0.0374958
1126	0.0112887
1138	0.0060606
1150	0.0047064
1162	0.0110667
1174	0.0366189
1186	0.0105672
1198	0.0040848
1210	0.003996
1222	0.0050727
1234	0.0070596
1246	0.0140304
1258	0.0496614
1270	0.111
1282	0.0442113
1294	0.0127317
1306	0.0092685
1318	0.0061494
1330	0.0028194
1342	0.0018204
1354	0.0025197
1366	0.0063492
1378	0.0039072
1390	0.0022644
1402	0.0021534
1414	0.0020868
1426	0.0031302
1438	0.0035853
1450	0.0025308
1462	0.0028083
1474	0.0030858
1486	0.0020979
1498	0.0028527
1510	0.0078699
1522	0.0058497
1534	0.0018315
1546	0.0014208
1558	0.0019314
1570	0.0032523
1582	0.0054168
1594	0.0104118
1606	0.0204573
1618	0.029415
1630	0.0298146
1642	0.0107004
1654	0.0039183
1666	0.0025974
1678	0.002664
1690	0.0034188
1702	0.0051171
1714	0.0124653
1726	0.0371184
1738	0.0456099
1750	0.0157731
1762	0.003885
1774	0.0016983
1786	0.0011211
1798	0.0008103
1810	0.0005106
1822	0.0003441
1834	0.000222
1846	0.0001887
1858	0.0001998
1870	0.0003108
1882	0.0004662
1894	0.0007659
1906	0.0007881
1918	0.0005772
1930	0.0003663
1942	0.0003108
1954	0.0003441
1966	0.0003219
1978	0.0002886
1990	0.0002109
2002	0.0001887
2014	0.0002109
2026	0.0002886
2038	0.0002442
2050	0.0001998
2062	0.0001665
2074	0.0001443
2086	0.000111
2098	0.0001665
2110	0.0002664
2122	0.0003108
2134	0.0001998
2146	6.66e-05
2158	1.11e-05
2170	1.11e-05
2182	1.11e-05
2194	3.33e-05
2206	1.11e-05
2218	4.44e-05
2230	2.22e-05
2242	1.11e-05
2254	2.22e-05
2266	6.66e-05
2278	7.77e-05
2290	0.000111
2302	9.99e-05
2314	6.66e-05
2326	4.44e-05
2338	3.33e-05
2350	6.66e-05
2362	0.0001332
2374	0.0001887
2386	0.0001443
2398	0.0001332
2410	0.000111
2422	0.0001221
2434	0.0001221
2446	0.000111
2458	7.77e-05
2470	4.44e-05
2482	2.22e-05
2494	0
2506	1.11e-05
2518	6.66e-05
2530	0.000111
2542	0.0001332
2554	8.88e-05
2566	0.0001665
2578	0.000222
2590	0.0001887
2602	0.0002442
2614	0.0002886
2626	0.0002997
2638	0.0002775
2650	0.0002109
2662	6.66e-05
2674	2.22e-05
2686	2.22e-05
2698	1.11e-05
2710	0
2722	4.44e-05
2734	8.88e-05
2746	0.000111
2758	0.0001332
2770	0.0002109
2782	0.000222
2794	0.0001887
2806	0.0001998
2818	0.0002886
2830	0.0003441
2842	0.0004329
2854	0.0005994
2866	0.000888
2878	0.0014985
2890	0.0020313
2902	0.0022755
2914	0.0025641
2926	0.0026529
2938	0.0041847
2950	0.0046065
2962	0.0044511
2974	0.006327
2986	0.008547
2998	0.0059718
3010	0.0044289
3022	0.0032967
3034	0.0035409
3046	0.0037962
3058	0.0019536
3070	0.0018537
3082	0.001332
3094	0.0009879
3106	0.0008214
3118	0.0006549
3130	0.0004773
3142	0.0002997
3154	0.0002442
3166	0.0002886
3178	0.000222
3190	0.0002331
3202	0.0004107
3214	0.0004551
3226	0.0003774
3238	0.0002553
3250	0.0001554
3262	7.77e-05
3274	5.55e-05
3286	3.33e-05
3298	3.33e-05
3310	5.55e-05
3322	7.77e-05
3334	0.000111
3346	0.0001554
3358	0.0001665
3370	0.0002553
3382	0.0003996
3394	0.0009546
3406	0.0021756
3418	0.0034854
3430	0.0032634
3442	0.0018648
3454	0.0008214
3466	0.0006105
3478	0.0007104
3490	0.0010767
3502	0.0013986
3514	0.0012987
3526	0.0010323
3538	0.000555
3550	0.0001998
3562	5.55e-05
3574	3.33e-05
3586	3.33e-05
3598	0
3610	2.22e-05
3622	0
3634	2.22e-05
3646	3.33e-05
3658	6.66e-05
3670	1.11e-05
3682	7.77e-05
3694	3.33e-05
3706	5.55e-05
3718	4.44e-05
3730	3.33e-05
3742	7.77e-05
3754	0.000111
3766	6.66e-05
3778	8.88e-05
3790	7.77e-05
3802	0.000111
3814	0.0001332
3826	0.0001443
3838	0.0003108
