Infrared Spectrum: ETHYLBENZOYL ACETATE
Formula: C11 H12 O3
CAS: 94-02-0
State: SOLUTION (10% CCl4 FOR 5000-1330, 10% CS2 FOR 1330-625 CM^-^1)
Class: COBLENTZ
Instrument: Not specified, most likely a prism, grating, or hybrid spectrometer.
Sampling: TRANSMISSION
Path length: 0.0125 CM, 0.0112 CM
Resolution: 4
Origin: DOW CHEMICAL COMPANY
MICROMETERS	TRANSMITTANCE
2.069	0.896
2.11014	0.895
2.15127	0.893
2.19241	0.888
2.23354	0.879
2.27468	0.884
2.31582	0.888
2.35695	0.89
2.39809	0.869
2.43923	0.888
2.48036	0.891
2.5215	0.891
2.56263	0.89
2.60377	0.89
2.64491	0.89
2.68604	0.883
2.72718	0.878
2.76831	0.879
2.80945	0.874
2.85059	0.865
2.89172	0.857
2.93286	0.828
2.974	0.821
3.01513	0.814
3.05627	0.805
3.0974	0.79
3.13854	0.762
3.17968	0.718
3.22081	0.621
3.26195	0.601
3.30308	0.536
3.34422	0.412
3.38536	0.577
3.42649	0.651
3.46763	0.699
3.50877	0.718
3.5499	0.745
3.59104	0.764
3.63217	0.797
3.67331	0.812
3.71445	0.807
3.75558	0.809
3.79672	0.81
3.83785	0.823
3.87899	0.826
3.92013	0.831
3.96126	0.833
4.0024	0.833
4.04354	0.833
4.08467	0.833
4.12581	0.836
4.16694	0.838
4.20808	0.836
4.24922	0.838
4.29035	0.855
4.33149	0.855
4.37262	0.852
4.41376	0.845
4.4549	0.852
4.49603	0.86
4.53717	0.864
4.57831	0.848
4.61944	0.85
4.66058	0.862
4.70171	0.864
4.74285	0.859
4.78399	0.855
4.82512	0.855
4.86626	0.853
4.90739	0.853
4.94853	0.852
4.98967	0.848
5.0308	0.823
5.07194	0.81
5.11308	0.833
5.15421	0.831
5.19535	0.817
5.23648	0.8
5.27762	0.798
5.31876	0.828
5.35989	0.828
5.40103	0.824
5.44216	0.804
5.4833	0.762
5.52444	0.761
5.56557	0.737
5.60671	0.668
5.64785	0.467
5.68898	0.182
5.73012	0.072
5.77125	0.274
5.81239	0.386
5.85353	0.316
5.89466	0.097
5.9358	0.213
5.97693	0.298
6.01807	0.149
6.05921	0.07
6.10034	0.085
6.14148	0.056
6.18262	0.139
6.22375	0.216
6.26489	0.371
6.30602	0.261
6.34716	0.336
6.3883	0.474
6.42943	0.549
6.47057	0.575
6.5117	0.599
6.55284	0.613
6.59398	0.632
6.63511	0.546
6.67625	0.47
6.71739	0.518
6.75852	0.4
6.79966	0.331
6.84079	0.237
6.88193	0.273
6.92307	0.51
6.9642	0.46
7.00534	0.312
7.04647	0.106
7.08761	0.176
7.12875	0.336
7.16988	0.34
7.21102	0.209
7.25216	0.371
7.29329	0.383
7.33443	0.381
7.37556	0.439
7.4167	0.4
7.45784	0.298
7.49897	0.211
7.54011	0.185
7.58124	0.204
7.62238	0.175
7.66352	0.163
7.70465	0.168
7.74579	0.171
7.78693	0.159
7.82806	0.085
7.8692	0.037
7.91033	0.027
7.95147	0.042
7.99261	0.092
8.03374	0.137
8.07488	0.144
8.11601	0.182
8.15715	0.228
8.19829	0.231
8.23942	0.135
8.28056	0.061
8.3217	0.024
8.36283	0.012
8.40397	0.024
8.4451	0.07
8.48624	0.151
8.52738	0.23
8.56851	0.264
8.60965	0.261
8.65078	0.25
8.69192	0.249
8.73306	0.219
8.77419	0.261
8.81533	0.365
8.85647	0.455
8.8976	0.512
8.93874	0.522
8.97987	0.513
9.02101	0.496
9.06215	0.439
9.10328	0.345
9.14442	0.3
9.18555	0.379
9.22669	0.35
9.26783	0.221
9.30896	0.221
9.3501	0.407
9.39124	0.539
9.43237	0.57
9.47351	0.556
9.51464	0.493
9.55578	0.415
9.59692	0.3
9.63805	0.17
9.67919	0.214
9.72032	0.211
9.76146	0.149
9.8026	0.237
9.84373	0.352
9.88487	0.455
9.92601	0.51
9.96714	0.494
10.0083	0.455
10.0494	0.457
10.0906	0.525
10.1317	0.575
10.1728	0.611
10.214	0.639
10.2551	0.652
10.2962	0.658
10.3374	0.659
10.3785	0.671
10.4196	0.671
10.4608	0.652
10.5019	0.625
10.543	0.599
10.5842	0.584
10.6253	0.584
10.6665	0.591
10.7076	0.599
10.7487	0.596
10.7899	0.58
10.831	0.549
10.8721	0.561
10.9133	0.616
10.9544	0.647
10.9955	0.661
11.0367	0.652
11.0778	0.604
11.119	0.558
11.1601	0.553
11.2012	0.575
11.2424	0.599
11.2835	0.632
11.3246	0.646
11.3658	0.649
11.4069	0.642
11.448	0.627
11.4892	0.608
11.5303	0.596
11.5715	0.58
11.6126	0.56
11.6537	0.539
11.6949	0.51
11.736	0.487
11.7771	0.448
11.8183	0.41
11.8594	0.371
11.9005	0.34
11.9417	0.321
11.9828	0.307
12.0239	0.302
12.0651	0.307
12.1062	0.324
12.1474	0.333
12.1885	0.348
12.2296	0.362
12.2708	0.367
12.3119	0.364
12.353	0.336
12.3942	0.288
12.4353	0.247
12.4764	0.321
12.5176	0.481
12.5587	0.582
12.5999	0.62
12.641	0.601
12.6821	0.565
12.7233	0.554
12.7644	0.537
12.8055	0.501
12.8467	0.429
12.8878	0.292
12.9289	0.12
12.9701	0.07
13.0112	0.223
13.0524	0.405
13.0935	0.505
13.1346	0.512
13.1758	0.482
13.2169	0.414
13.258	0.355
13.2992	0.314
13.3403	0.352
13.3814	0.429
13.4226	0.491
13.4637	0.53
13.5049	0.544
13.546	0.537
13.5871	0.498
13.6283	0.443
13.6694	0.371
13.7105	0.269
13.7517	0.23
13.7928	0.228
13.8339	0.276
13.8751	0.341
13.9162	0.402
13.9573	0.443
13.9985	0.472
14.0396	0.486
14.0808	0.503
14.1219	0.524
14.163	0.536
14.2042	0.527
14.2453	0.51
14.2864	0.481
14.3276	0.441
14.3687	0.384
14.4098	0.324
14.451	0.225
14.4921	0.142
14.5333	0.099
14.5744	0.116
14.6155	0.237
14.6567	0.34
14.6978	0.434
14.7389	0.494
14.7801	0.53
14.8212	0.554
14.8623	0.57
14.9035	0.579
14.9446	0.585
14.9858	0.603
15.0269	0.613
15.068	0.618
15.1092	0.623
15.1503	0.627
15.1914	0.627
15.2326	0.618
15.2737	0.603
15.3148	0.587
15.356	0.577
15.3971	0.565
15.4383	0.553
15.4794	0.548
15.5205	0.548
15.5617	0.551
15.6028	0.558
15.6439	0.56
15.6851	0.561
15.7262	0.56
15.7673	0.56
15.8085	0.558
