Infrared Spectrum: Benzyl p-hydroxybenzoate
Formula: C 14 H 12 O 3
CAS: 94-18-8
State: gas
Instrument: HP-GC/MS/IRD
Origin: NIST Mass Spectrometry Data Center
1/CM	ABSORBANCE
550	0.0027218
562	0.000878
574	0.0029852
586	0.0043461
598	0.0066289
610	0.009219
622	0.0106238
634	0.0021511
646	0.0009219
658	0.0008341
670	0.0050485
682	0.0161991
694	0.0297642
706	0.0196672
718	0.0154967
730	0.0154528
742	0.0229597
754	0.0259888
766	0.029852
778	0.0164625
790	0.0063655
802	0.0055314
814	0.0084288
826	0.0119408
838	0.0229158
850	0.0201501
862	0.00878
874	0.0054875
886	0.0043022
898	0.0039071
910	0.0069362
922	0.003951
934	0.0043461
946	0.0085605
958	0.0121164
970	0.0109311
982	0.0083849
994	0.007463
1006	0.0132139
1018	0.0164625
1030	0.0136529
1042	0.0091751
1054	0.0136968
1066	0.0287106
1078	0.0713814
1090	0.169805
1102	0.183678
1114	0.106633
1126	0.0369638
1138	0.0271741
1150	0.0562798
1162	0.214539
1174	0.0949118
1186	0.105097
1198	0.072874
1210	0.0349883
1222	0.0350322
1234	0.0538653
1246	0.123183
1258	0.363755
1270	0.336142
1282	0.08341
1294	0.0386759
1306	0.0330567
1318	0.0319592
1330	0.0249791
1342	0.0123359
1354	0.0113701
1366	0.0168137
1378	0.0226963
1390	0.0082093
1402	0.0052241
1414	0.0076825
1426	0.0203257
1438	0.0210281
1450	0.0154967
1462	0.0153211
1474	0.0097897
1486	0.0108872
1498	0.0268668
1510	0.0454804
1522	0.0173844
1534	0.0063216
1546	0.0054875
1558	0.0072435
1570	0.0116335
1582	0.0252864
1594	0.0606259
1606	0.0887658
1618	0.0604064
1630	0.0186136
1642	0.0081654
1654	0.0054875
1666	0.0046973
1678	0.0056192
1690	0.008341
1702	0.0123359
1714	0.0266473
1726	0.086483
1738	0.190438
1750	0.0949996
1762	0.0231353
1774	0.0104482
1786	0.0071557
1798	0.0063655
1810	0.0034242
1822	0.0018877
1834	0.0014926
1846	0.0015804
1858	0.0018438
1870	0.0025023
1882	0.0032486
1894	0.003073
1906	0.0027657
1918	0.0025023
1930	0.002195
1942	0.0020633
1954	0.0022389
1966	0.0013609
1978	0.0007902
1990	0.0007024
2002	0.000878
2014	0.0005268
2026	0.0009658
2038	0.0010975
2050	0.0014926
2062	0.0015365
2074	0.0014926
2086	0.0014487
2098	0.0015804
2110	0.0010097
2122	0.0005707
2134	0.000439
2146	0.0003512
2158	0.0003512
2170	0.0003512
2182	0.000439
2194	0.0003951
2206	0.000439
2218	0.000439
2230	0.000439
2242	0.0005707
2254	0.0005707
2266	0.0006146
2278	0.0006146
2290	0.0005707
2302	0.0006146
2314	0.0009658
2326	0.0010536
2338	0.0012292
2350	0.0012731
2362	0.0011414
2374	0.0009658
2386	0.0008341
2398	0.0007902
2410	0.0011414
2422	0.0017999
2434	0.0019316
2446	0.0019755
2458	0.0015365
2470	0.000878
2482	0.0007024
2494	0.0008341
2506	0.0010536
2518	0.0015365
2530	0.001317
2542	0.0006585
2554	0.0004829
2566	0.0005268
2578	0.0006146
2590	0.0007463
2602	0.0008341
2614	0.000878
2626	0.0008341
2638	0.0007463
2650	0.0007024
2662	0.0007024
2674	0.000439
2686	0.000439
2698	0.000439
2710	0.000439
2722	0.0004829
2734	0.0005268
2746	0.0005268
2758	0.0007463
2770	0.0010097
2782	0.0009658
2794	0.0007902
2806	0.0009219
2818	0.0011853
2830	0.0014926
2842	0.0014487
2854	0.0014926
2866	0.0020194
2878	0.003073
2890	0.004829
2902	0.0055314
2914	0.0041705
2926	0.0039949
2938	0.006146
2950	0.0117213
2962	0.0145748
2974	0.0091312
2986	0.0063216
2998	0.0056192
3010	0.0080776
3022	0.0122042
3034	0.0215988
3046	0.0235304
3058	0.0160235
3070	0.0242767
3082	0.0201501
3094	0.0112384
3106	0.0078581
3118	0.0046973
3130	0.0021511
3142	0.0010536
3154	0.0007463
3166	0.0007463
3178	0.0007902
3190	0.0007902
3202	0.0006585
3214	0.0005268
3226	0.0004829
3238	0.0004829
3250	0.000439
3262	0.0003951
3274	0.0003512
3286	0.000439
3298	0.0005707
3310	0.000878
3322	0.0009658
3334	0.0010097
3346	0.0010536
3358	0.0009219
3370	0.0007902
3382	0.0007024
3394	0.0007024
3406	0.0006585
3418	0.0007024
3430	0.0009219
3442	0.0012731
3454	0.0018877
3466	0.0017121
3478	0.0012292
3490	0.000878
3502	0.0006146
3514	0.0005707
3526	0.0006146
3538	0.0003951
3550	0.0004829
3562	0.0005268
3574	0.0005707
3586	0.0007024
3598	0.0011414
3610	0.0021511
3622	0.0046973
3634	0.0193599
3646	0.0745422
3658	0.023706
3670	0.0044339
3682	0.0019316
3694	0.0011853
3706	0.000878
3718	0.0008341
3730	0.0007463
3742	0.0007024
3754	0.0005707
3766	0.0005268
3778	0.0005268
3790	0.0006146
3802	0.0006146
3814	0.0005707
3826	0.0007024
3838	0.0007463
