Infrared Spectrum: p-Aminobenzoic acid, isobutyl ester
Formula: C11 H15 N O2
CAS: 94-14-4
State: SOLUTION (10% CCl4 FOR 3800-1330, 10% CS2 FOR 1330-450 CM^-^1)
Class: COBLENTZ III
Instrument: DOW KBr FOREPRISM-GRATING
Instrument parameters: BLAZED AT 3.5, 12.0, 20.0 MICRON AND CHANGED AT 5.0, 7.5, 14.9 MICRON
Sampling: TRANSMISSION
Path length: 0.011 CM, 0.011 CM
Resolution: 2
Origin: DOW CHEMICAL COMPANY
1/CM	TRANSMITTANCE
3800	0.9271
3791	0.9288
3782	0.9272
3773	0.9288
3764	0.9299
3755	0.9309
3746	0.9321
3737	0.9346
3728	0.9356
3719	0.9346
3710	0.9371
3701	0.9374
3692	0.9332
3683	0.9269
3674	0.923
3665	0.9227
3656	0.9252
3647	0.9279
3638	0.9293
3629	0.9298
3620	0.9316
3611	0.931
3602	0.9284
3593	0.9259
3584	0.9246
3575	0.9186
3566	0.9102
3557	0.911
3548	0.9092
3539	0.902
3530	0.8917
3521	0.8713
3512	0.8349
3503	0.7375
3494	0.5185
3485	0.445
3476	0.4697
3467	0.5494
3458	0.6291
3449	0.7088
3440	0.7513
3431	0.764
3422	0.7633
3413	0.6052
3404	0.3764
3395	0.3227
3386	0.3234
3377	0.2406
3368	0.2217
3359	0.2732
3350	0.445
3341	0.6125
3332	0.699
3323	0.7551
3314	0.793
3305	0.8252
3296	0.8412
3287	0.8518
3278	0.8602
3269	0.8642
3260	0.8541
3251	0.834
3242	0.7941
3233	0.7525
3224	0.7213
3215	0.71
3206	0.7124
3197	0.7636
3188	0.8396
3179	0.8773
3170	0.8856
3161	0.8847
3152	0.8732
3143	0.8693
3134	0.8849
3125	0.8797
3116	0.8767
3107	0.8885
3098	0.8734
3089	0.8656
3080	0.8737
3071	0.8347
3062	0.7974
3053	0.8062
3044	0.7634
3035	0.722
3026	0.7753
3017	0.7606
3008	0.7465
2999	0.7517
2990	0.7321
2981	0.491
2972	0.2594
2963	0.095
2954	0.1015
2945	0.2697
2936	0.3008
2927	0.3163
2918	0.4748
2909	0.5144
2900	0.5009
2891	0.4687
2882	0.4844
2873	0.3734
2864	0.521
2855	0.789
2846	0.8212
2837	0.8298
2828	0.8441
2819	0.8543
2810	0.8574
2801	0.8756
2792	0.8825
2783	0.8817
2774	0.878
2765	0.8769
2756	0.8832
2747	0.885
2738	0.8869
2729	0.8849
2720	0.8874
2711	0.894
2702	0.8933
2693	0.8889
2684	0.8818
2675	0.8664
2666	0.8364
2657	0.8273
2648	0.8308
2639	0.847
2630	0.8588
2621	0.8723
2612	0.8787
2603	0.8739
2594	0.8789
2585	0.8827
2576	0.8825
2567	0.8894
2558	0.8948
2549	0.8939
2540	0.892
2531	0.892
2522	0.8959
2513	0.8999
2504	0.9044
2495	0.9051
2486	0.9054
2477	0.9043
2468	0.904
2459	0.9043
2450	0.8992
2441	0.898
2432	0.8962
2423	0.8973
2414	0.897
2405	0.8942
2396	0.8873
2387	0.8797
2378	0.8801
2369	0.8852
2360	0.8977
2351	0.907
2342	0.9088
2333	0.9088
2324	0.9094
2315	0.9027
2306	0.8971
2297	0.8928
2288	0.8939
2279	0.8946
2270	0.8942
2261	0.894
2252	0.8936
2243	0.8932
2234	0.8941
2225	0.8958
2216	0.8915
2207	0.8918
2198	0.8923
2189	0.8918
2180	0.8928
2171	0.8954
2162	0.8948
2153	0.8892
2144	0.8804
2135	0.8717
2126	0.8702
2117	0.8698
2108	0.8671
2099	0.8634
2090	0.8628
2081	0.8642
2072	0.8693
2063	0.8701
2054	0.8716
2045	0.8703
2036	0.8698
2027	0.8647
2018	0.8572
2009	0.8588
2000	0.8645
1991	0.8604
1982	0.8753
1973	0.8765
1964	0.875
1955	0.8802
1946	0.8762
1937	0.8697
1928	0.8584
1919	0.8304
1910	0.7863
1901	0.8078
1892	0.8358
1883	0.8572
1874	0.8726
1865	0.8769
1856	0.8734
1847	0.8721
1838	0.8703
1829	0.8646
1820	0.8587
1811	0.8538
1802	0.8435
1793	0.8363
1784	0.8183
1775	0.7938
1766	0.7989
1757	0.7909
1748	0.7531
1739	0.6615
1730	0.4657
1721	0.1647
1712	0.011
1703	0.0046
1694	0.0075
1685	0.0795
1676	0.325
1667	0.4915
1658	0.5188
1649	0.4893
1640	0.2558
1631	0.0447
1622	0.0064
1613	0.0328
1604	0.0103
1595	0.1221
1586	0.5219
1577	0.4537
1568	0.6391
1559	0.7164
1550	0.7272
1541	0.7232
1532	0.7068
1523	0.5644
1514	0.1227
1505	0.6349
1496	0.7604
1487	0.7475
1478	0.7178
1469	0.1829
1460	0.4462
1451	0.5017
1442	0.4581
1433	0.5068
1424	0.7263
1415	0.7759
1406	0.7715
1397	0.362
1388	0.5783
1379	0.2956
1370	0.2765
1361	0.6833
1352	0.693
1343	0.4277
1334	0.472
1325	0.5204
1316	0.3256
1307	0.04
1298	0.0828
1289	0.1418
1280	0.0122
1271	0.0071
1262	0.0141
1253	0.1531
1244	0.3543
1235	0.5313
1226	0.5752
1217	0.7003
1208	0.7563
1199	0.7155
1190	0.7064
1181	0.5505
1172	0.0459
1163	0.1547
1154	0.6121
1145	0.6377
1136	0.5607
1127	0.3899
1118	0.1048
1109	0.0117
1100	0.0438
1091	0.2694
1082	0.5375
1073	0.5787
1064	0.5807
1055	0.6258
1046	0.726
1037	0.7932
1028	0.8122
1019	0.8009
1010	0.4432
1001	0.749
992	0.5276
983	0.3252
974	0.5873
965	0.64
956	0.7292
947	0.6719
938	0.667
929	0.7167
920	0.7258
911	0.7385
902	0.7629
893	0.7967
884	0.7973
875	0.7299
866	0.7008
857	0.6723
848	0.481
839	0.1501
830	0.5432
821	0.6605
812	0.6977
803	0.7205
794	0.7018
785	0.6854
776	0.4034
767	0.1079
758	0.5948
749	0.7013
740	0.7189
731	0.7245
722	0.7191
713	0.6964
704	0.6507
695	0.3477
686	0.584
677	0.6343
668	0.6399
659	0.61
650	0.5839
641	0.607
632	0.6447
623	0.4793
614	0.393
605	0.4831
596	0.5296
587	0.5635
578	0.585
569	0.5926
560	0.5905
551	0.5711
542	0.5058
533	0.5555
524	0.5543
515	0.5123
506	0.3007
497	0.4351
488	0.48
479	0.4927
470	0.4976
461	0.5067
452	0.5084
