Infrared Spectrum: n-PROPYL-p-HYDROXY-BENZOATE
Formula: C10 H12 O3
CAS: 94-13-3
State: SOLID (MINERAL OIL MULL)
Class: COBLENTZ
Instrument: Not specified, most likely a prism, grating, or hybrid spectrometer.
Sampling: TRANSMISSION
Resolution: 4
Origin: DOW CHEMICAL COMPANY
MICROMETERS	TRANSMITTANCE
2.055	0.438
2.09618	0.447
2.13735	0.45
2.17853	0.457
2.21971	0.464
2.26088	0.465
2.30206	0.472
2.34323	0.479
2.38441	0.484
2.42559	0.491
2.46676	0.5
2.50794	0.505
2.54912	0.511
2.59029	0.518
2.63147	0.523
2.67264	0.527
2.71382	0.534
2.755	0.537
2.79617	0.54
2.83735	0.539
2.87853	0.518
2.9197	0.474
2.96088	0.38
3.00205	0.298
3.04323	0.252
3.08441	0.317
3.12558	0.397
3.16676	0.453
3.20794	0.491
3.24911	0.508
3.29029	0.51
3.33147	0.47
3.37264	0.196
3.41382	0.126
3.45499	0.244
3.49617	0.296
3.53735	0.537
3.57852	0.563
3.6197	0.58
3.66088	0.583
3.70205	0.59
3.74323	0.595
3.7844	0.6
3.82558	0.602
3.86676	0.607
3.90793	0.616
3.94911	0.621
3.99029	0.627
4.03146	0.631
4.07264	0.633
4.11382	0.636
4.15499	0.65
4.19617	0.643
4.23734	0.643
4.27852	0.656
4.3197	0.668
4.36087	0.672
4.40205	0.675
4.44323	0.679
4.4844	0.682
4.52558	0.682
4.56675	0.686
4.60793	0.689
4.64911	0.691
4.69028	0.691
4.73146	0.696
4.77264	0.696
4.81381	0.701
4.85499	0.704
4.89616	0.706
4.93734	0.709
4.97852	0.713
5.01969	0.715
5.06087	0.721
5.10205	0.718
5.14322	0.721
5.1844	0.711
5.22558	0.711
5.26675	0.73
5.30793	0.732
5.3491	0.73
5.39028	0.74
5.43146	0.738
5.47263	0.74
5.51381	0.74
5.55499	0.738
5.59616	0.735
5.63734	0.732
5.67851	0.735
5.71969	0.723
5.76087	0.721
5.80204	0.713
5.84322	0.687
5.8844	0.575
5.92557	0.348
5.96675	0.187
6.00792	0.38
6.0491	0.626
6.09028	0.655
6.13145	0.633
6.17263	0.53
6.21381	0.228
6.25498	0.382
6.29616	0.433
6.33734	0.651
6.37851	0.674
6.41969	0.692
6.46086	0.713
6.50204	0.733
6.54322	0.684
6.58439	0.581
6.62557	0.667
6.66675	0.689
6.70792	0.675
6.7491	0.576
6.79027	0.472
6.83145	0.402
6.87263	0.394
6.9138	0.276
6.95498	0.392
6.99616	0.653
7.03733	0.687
7.07851	0.641
7.11969	0.576
7.16086	0.52
7.20204	0.501
7.24321	0.431
7.28439	0.479
7.32557	0.517
7.36674	0.602
7.40792	0.619
7.4491	0.515
7.49027	0.351
7.53145	0.23
7.57262	0.37
7.6138	0.6
7.65498	0.52
7.69615	0.343
7.73733	0.192
7.77851	0.122
7.81968	0.262
7.86086	0.378
7.90203	0.477
7.94321	0.563
7.98439	0.568
8.02556	0.501
8.06674	0.387
8.10792	0.24
8.14909	0.247
8.19027	0.395
8.23145	0.546
8.27262	0.604
8.3138	0.639
8.35497	0.66
8.39615	0.67
8.43733	0.655
8.4785	0.51
8.51968	0.296
8.56086	0.262
8.60203	0.476
8.64321	0.619
8.68438	0.597
8.72556	0.561
8.76674	0.648
8.80791	0.687
8.84909	0.651
8.89027	0.554
8.93144	0.544
8.97262	0.619
9.01379	0.6
9.05497	0.588
9.09615	0.711
9.13732	0.761
9.1785	0.767
9.21968	0.774
9.26085	0.781
9.30203	0.784
9.34321	0.788
9.38438	0.783
9.42556	0.784
9.46673	0.79
9.50791	0.771
9.54909	0.75
9.59026	0.752
9.63144	0.784
9.67262	0.798
9.71379	0.81
9.75497	0.817
9.79614	0.822
9.83732	0.802
9.8785	0.781
9.91967	0.807
9.96085	0.824
10.002	0.832
10.0432	0.837
10.0844	0.841
10.1256	0.839
10.1667	0.832
10.2079	0.817
10.2491	0.767
10.2903	0.667
10.3314	0.581
10.3726	0.651
10.4138	0.755
10.455	0.776
10.4961	0.793
10.5373	0.819
10.5785	0.824
10.6197	0.822
10.6608	0.819
10.702	0.824
10.7432	0.825
10.7844	0.824
10.8256	0.812
10.8667	0.783
10.9079	0.781
10.9491	0.802
10.9903	0.813
11.0314	0.817
11.0726	0.819
11.1138	0.819
11.155	0.812
11.1961	0.805
11.2373	0.803
11.2785	0.82
11.3197	0.825
11.3608	0.827
11.402	0.827
11.4432	0.827
11.4844	0.825
11.5255	0.817
11.5667	0.791
11.6079	0.778
11.6491	0.783
11.6903	0.754
11.7314	0.651
11.7726	0.53
11.8138	0.651
11.855	0.798
11.8961	0.802
11.9373	0.8
11.9785	0.781
12.0197	0.773
12.0608	0.795
12.102	0.81
12.1432	0.812
12.1844	0.812
12.2255	0.803
12.2667	0.798
12.3079	0.788
12.3491	0.769
12.3903	0.773
12.4314	0.79
12.4726	0.8
12.5138	0.807
12.555	0.808
12.5961	0.808
12.6373	0.81
12.6785	0.808
12.7197	0.8
12.7608	0.795
12.802	0.767
12.8432	0.708
12.8844	0.581
12.9255	0.517
12.9667	0.598
13.0079	0.686
13.0491	0.716
13.0902	0.721
13.1314	0.72
13.1726	0.718
13.2138	0.747
13.255	0.769
13.2961	0.779
13.3373	0.786
13.3785	0.786
13.4197	0.783
13.4608	0.779
13.502	0.776
13.5432	0.773
13.5844	0.769
13.6255	0.764
13.6667	0.759
13.7079	0.754
13.7491	0.747
13.7902	0.738
13.8314	0.73
13.8726	0.721
13.9138	0.711
13.955	0.704
13.9961	0.694
14.0373	0.68
14.0785	0.663
14.1197	0.643
14.1608	0.616
14.202	0.583
14.2432	0.544
14.2844	0.515
14.3255	0.511
14.3667	0.54
14.4079	0.585
14.4491	0.61
14.4902	0.631
14.5314	0.633
14.5726	0.638
14.6138	0.636
14.6549	0.631
14.6961	0.626
14.7373	0.622
14.7785	0.619
14.8197	0.614
14.8608	0.607
14.902	0.598
14.9432	0.593
14.9844	0.595
15.0255	0.597
15.0667	0.587
15.1079	0.58
15.1491	0.576
15.1902	0.575
15.2314	0.569
15.2726	0.563
15.3138	0.559
15.3549	0.554
15.3961	0.546
15.4373	0.539
15.4785	0.532
15.5197	0.523
15.5608	0.513
15.602	0.501
15.6432	0.486
15.6844	0.479
15.7255	0.474
15.7667	0.47
15.8079	0.47
15.8491	0.465
15.8902	0.467
