Infrared Spectrum: p-HYDROXYBENZOIC ACID, n-BUTYL ESTER
Formula: C11 H14 O3
CAS: 94-26-8
State: SOLUTION (CCl4 FOR 2-7.5, CS2 FOR 7.5-16 MICRON) VS SOLVENT
Class: COBLENTZ III
Instrument: BAIRD (PRISM)
Instrument parameters: NaCl PRISM
Sampling: TRANSMISSION
Path length: 0.01 CM, AND 0.01 CM , REFERENCES : 0.005 CM
Resolution: 2
Origin: WYANDOTTE CHEMICALS CORP.
MICROMETERS	TRANSMITTANCE
2.017	0.95
2.05612	0.944
2.09524	0.952
2.13436	0.963
2.17349	0.949
2.21261	0.926
2.25173	0.929
2.29085	0.932
2.32997	0.937
2.36909	0.918
2.40821	0.918
2.44734	0.933
2.48646	0.936
2.52558	0.939
2.5647	0.953
2.60382	0.949
2.64294	0.949
2.68206	0.918
2.72118	0.906
2.76031	0.82
2.79943	0.689
2.83855	0.567
2.87767	0.356
2.91679	0.125
2.95591	0.018
2.99503	0.011
3.03416	0.011
3.07328	0.024
3.1124	0.054
3.15152	0.103
3.19064	0.218
3.22976	0.353
3.26888	0.425
3.30801	0.459
3.34713	0.251
3.38625	0.025
3.42537	0.094
3.46449	0.185
3.50361	0.159
3.54273	0.49
3.58185	0.562
3.62098	0.664
3.6601	0.678
3.69922	0.649
3.73834	0.653
3.77746	0.663
3.81658	0.728
3.8557	0.705
3.89483	0.686
3.93395	0.69
3.97307	0.691
4.01219	0.708
4.05131	0.724
4.09043	0.743
4.12955	0.724
4.16868	0.717
4.2078	0.732
4.24692	0.793
4.28604	0.851
4.32516	0.88
4.36428	0.879
4.4034	0.89
4.44253	0.895
4.48165	0.888
4.52077	0.901
4.55989	0.902
4.59901	0.918
4.63813	0.927
4.67725	0.923
4.71637	0.921
4.7555	0.899
4.79462	0.889
4.83374	0.869
4.87286	0.879
4.91198	0.893
4.9511	0.9
4.99022	0.902
5.02935	0.904
5.06847	0.904
5.10759	0.902
5.14671	0.901
5.18583	0.895
5.22495	0.869
5.26407	0.723
5.3032	0.812
5.34232	0.88
5.38144	0.894
5.42056	0.891
5.45968	0.893
5.4988	0.873
5.53792	0.85
5.57704	0.82
5.61617	0.766
5.65529	0.732
5.69441	0.743
5.73353	0.637
5.77265	0.366
5.81177	0.025
5.85089	0.019
5.89002	0.018
5.92914	0.008
5.96826	0.012
6.00738	0.067
6.0465	0.207
6.08562	0.253
6.12474	0.144
6.16387	0.014
6.20299	0.004
6.24211	0.006
6.28123	0.031
6.32035	0.276
6.35947	0.4
6.39859	0.427
6.43771	0.436
6.47684	0.512
6.51596	0.524
6.55508	0.143
6.5942	0.019
6.63332	0.326
6.67244	0.401
6.71156	0.364
6.75069	0.176
6.78981	0.051
6.82893	0.045
6.86805	0.022
6.90717	0.009
6.94629	0.06
6.98541	0.239
7.02454	0.386
7.06366	0.395
7.10278	0.308
7.1419	0.132
7.18102	0.024
7.22014	0.017
7.25926	0.038
7.29839	0.082
7.33751	0.093
7.37663	0.045
7.41575	0.079
7.45487	0.081
7.49399	0.079
7.53311	0.079
7.57223	0.078
7.61136	0.014
7.65048	0.04
7.6896	0.074
7.72872	0.006
7.76784	0.003
7.80696	0.001
7.84608	0.002
7.88521	0.003
7.92433	0.007
7.96345	0.019
8.00257	0.041
8.04169	0.027
8.08081	0.017
8.11993	0.013
8.15906	0.011
8.19818	0.014
8.2373	0.047
8.27642	0.094
8.31554	0.169
8.35466	0.233
8.39378	0.278
8.4329	0.287
8.47203	0.3
8.51115	0.25
8.55027	0.022
8.58939	0.008
8.62851	0.051
8.66763	0.183
8.70675	0.276
8.74588	0.275
8.785	0.17
8.82412	0.11
8.86324	0.077
8.90236	0.046
8.94148	0.028
8.9806	0.029
9.01973	0.046
9.05885	0.033
9.09797	0.046
9.13709	0.121
9.17621	0.426
9.21533	0.555
9.25445	0.62
9.29358	0.649
9.3327	0.633
9.37182	0.604
9.41094	0.588
9.45006	0.576
9.48918	0.683
9.5283	0.785
9.56742	0.825
9.60655	0.839
9.64567	0.837
9.68479	0.825
9.72391	0.788
9.76303	0.737
9.80215	0.641
9.84127	0.561
9.8804	0.53
9.91952	0.703
9.95864	0.754
9.99776	0.766
10.0369	0.745
10.076	0.724
10.1151	0.757
10.1542	0.808
10.1934	0.839
10.2325	0.831
10.2716	0.789
10.3107	0.724
10.3499	0.638
10.389	0.562
10.4281	0.544
10.4672	0.579
10.5063	0.598
10.5455	0.601
10.5846	0.584
10.6237	0.542
10.6628	0.533
10.7019	0.597
10.7411	0.649
10.7802	0.684
10.8193	0.766
10.8584	0.836
10.8976	0.869
10.9367	0.891
10.9758	0.902
11.0149	0.896
11.054	0.879
11.0932	0.864
11.1323	0.864
11.1714	0.879
11.2105	0.882
11.2496	0.877
11.2888	0.862
11.3279	0.853
11.367	0.836
11.4061	0.81
11.4453	0.769
11.4844	0.742
11.5235	0.727
11.5626	0.705
11.6017	0.671
11.6409	0.606
11.68	0.496
11.7191	0.319
11.7582	0.1
11.7973	0.041
11.8365	0.11
11.8756	0.281
11.9147	0.452
11.9538	0.534
11.9929	0.566
12.0321	0.588
12.0712	0.622
12.1103	0.637
12.1494	0.626
12.1886	0.601
12.2277	0.562
12.2668	0.558
12.3059	0.598
12.345	0.646
12.3842	0.679
12.4233	0.71
12.4624	0.742
12.5015	0.762
12.5406	0.773
12.5798	0.772
12.6189	0.753
12.658	0.73
12.6971	0.705
12.7363	0.656
12.7754	0.611
12.8145	0.498
12.8536	0.291
12.8927	0.105
12.9319	0.044
12.971	0.049
13.0101	0.16
13.0492	0.316
13.0883	0.469
13.1275	0.556
13.1666	0.603
13.2057	0.641
13.2448	0.653
13.284	0.656
13.3231	0.662
13.3622	0.66
13.4013	0.663
13.4404	0.654
13.4796	0.643
13.5187	0.622
13.5578	0.594
13.5969	0.571
13.636	0.582
13.6752	0.611
13.7143	0.632
13.7534	0.637
13.7925	0.636
13.8317	0.631
13.8708	0.625
13.9099	0.616
13.949	0.61
13.9881	0.59
14.0273	0.574
14.0664	0.561
14.1055	0.539
14.1446	0.508
14.1837	0.474
14.2229	0.418
14.262	0.348
14.3011	0.267
14.3402	0.206
14.3794	0.185
14.4185	0.201
14.4576	0.266
14.4967	0.364
14.5358	0.438
14.575	0.501
14.6141	0.524
14.6532	0.552
14.6923	0.561
14.7314	0.558
14.7706	0.557
14.8097	0.56
14.8488	0.562
14.8879	0.557
14.9271	0.556
14.9662	0.556
15.0053	0.558
15.0444	0.557
15.0835	0.557
15.1227	0.552
15.1618	0.546
15.2009	0.541
15.24	0.544
15.2791	0.54
15.3183	0.527
15.3574	0.536
15.3965	0.539
15.4356	0.54
15.4748	0.544
15.5139	0.549
15.553	0.549
15.5921	0.554
15.6312	0.555
15.6704	0.551
15.7095	0.544
15.7486	0.542
15.7877	0.552
15.8268	0.566
15.866	0.57
15.9051	0.576
15.9442	0.588
15.9833	0.592
