Infrared Spectrum: UREA, 1-PROPYL-3-(p-CHLORO-BENZENESULFONYL)-
Formula: C10 H13 Cl N2 O3 S
CAS: 94-20-2
State: SOLID (KBr DISC) VS KBr
Melting point: 127-129 C
Class: COBLENTZ III
Instrument: PERKIN-ELMER 21 (GRATING)
Instrument parameters: FILTER AT ABOUT 10 MICRONS
Sampling: TRANSMISSION
Path length: 0.05 CM (THICKNESS)
Resolution: 2
1/CM	TRANSMITTANCE
4000	0.8899
3991	0.8899
3982	0.8899
3973	0.89
3964	0.8901
3955	0.8904
3946	0.8907
3937	0.891
3928	0.8912
3919	0.8915
3910	0.8918
3901	0.8921
3892	0.8925
3883	0.8928
3874	0.8933
3865	0.8937
3856	0.8941
3847	0.8943
3838	0.8945
3829	0.8946
3820	0.8948
3811	0.8949
3802	0.8951
3793	0.8953
3784	0.8954
3775	0.8955
3766	0.8956
3757	0.8957
3748	0.8958
3739	0.8959
3730	0.8959
3721	0.8956
3712	0.8953
3703	0.8949
3694	0.8946
3685	0.8942
3676	0.8937
3667	0.8933
3658	0.8925
3649	0.8909
3640	0.8878
3631	0.8846
3622	0.8814
3613	0.8764
3604	0.8724
3595	0.8683
3586	0.864
3577	0.8594
3568	0.8548
3559	0.8502
3550	0.8465
3541	0.8434
3532	0.8402
3523	0.837
3514	0.8316
3505	0.8244
3496	0.8171
3487	0.8088
3478	0.8031
3469	0.7985
3460	0.794
3451	0.7851
3442	0.7708
3433	0.7511
3424	0.6815
3415	0.6571
3406	0.5791
3397	0.4607
3388	0.3414
3379	0.2627
3370	0.272
3361	0.3724
3352	0.4798
3343	0.5877
3334	0.6332
3325	0.6461
3316	0.6531
3307	0.6582
3298	0.6606
3289	0.6622
3280	0.6637
3271	0.6633
3262	0.66
3253	0.6496
3244	0.6367
3235	0.624
3226	0.5967
3217	0.5369
3208	0.5091
3199	0.4926
3190	0.4756
3181	0.4579
3172	0.4447
3163	0.4302
3154	0.4162
3145	0.3845
3136	0.3629
3127	0.3362
3118	0.3095
3109	0.2834
3100	0.2781
3091	0.2789
3082	0.2944
3073	0.333
3064	0.3721
3055	0.4112
3046	0.4507
3037	0.4903
3028	0.5302
3019	0.5695
3010	0.5777
3001	0.5769
2992	0.5691
2983	0.5332
2974	0.4944
2965	0.4799
2956	0.4768
2947	0.4641
2938	0.4524
2929	0.4498
2920	0.4481
2911	0.4457
2902	0.4412
2893	0.4415
2884	0.4439
2875	0.456
2866	0.4849
2857	0.5697
2848	0.6551
2839	0.6764
2830	0.6876
2821	0.7045
2812	0.7181
2803	0.7308
2794	0.7425
2785	0.7534
2776	0.7644
2767	0.7742
2758	0.7836
2749	0.793
2740	0.8015
2731	0.8098
2722	0.8171
2713	0.8236
2704	0.8302
2695	0.8355
2686	0.84
2677	0.8446
2668	0.8492
2659	0.854
2650	0.8587
2641	0.8631
2632	0.8671
2623	0.8708
2614	0.8739
2605	0.873
2596	0.8709
2587	0.8688
2578	0.8667
2569	0.8658
2560	0.8656
2551	0.8657
2542	0.8693
2533	0.8728
2524	0.8768
2515	0.8811
2506	0.8852
2497	0.8892
2488	0.8927
2479	0.8962
2470	0.8998
2461	0.9024
2452	0.9051
2443	0.9074
2434	0.9077
2425	0.908
2416	0.9083
2407	0.9084
2398	0.9082
2389	0.9078
2380	0.9075
2371	0.9067
2362	0.9058
2353	0.9049
2344	0.9039
2335	0.9056
2326	0.9078
2317	0.911
2308	0.913
2299	0.9141
2290	0.9152
2281	0.9157
2272	0.9159
2263	0.9161
2254	0.9163
2245	0.9165
2236	0.9168
2227	0.917
2218	0.9171
2209	0.9174
2200	0.9178
2191	0.9186
2182	0.9193
2173	0.92
2164	0.92
2155	0.9192
2146	0.9178
2137	0.916
2128	0.9162
2119	0.9174
2110	0.9193
2101	0.9215
2092	0.922
2083	0.9223
2074	0.9217
2065	0.9209
2056	0.9206
2047	0.9202
2038	0.9199
2029	0.9193
2020	0.9183
2011	0.9173
2002	0.9155
1993	0.9135
1984	0.9117
1975	0.9114
1966	0.911
1957	0.9107
1948	0.9098
1939	0.9087
1930	0.9047
1921	0.8914
1912	0.8747
1903	0.8761
1894	0.8897
1885	0.8961
1876	0.8988
1867	0.8964
1858	0.893
1849	0.8889
1840	0.8865
1831	0.884
1822	0.8812
1813	0.874
1804	0.8678
1795	0.8598
1786	0.8483
1777	0.8401
1768	0.8355
1759	0.8198
1750	0.7851
1741	0.7338
1732	0.6475
1723	0.5859
1714	0.5136
1705	0.3776
1696	0.2671
1687	0.2253
1678	0.0648
1669	0.0265
1660	0.2137
1651	0.3646
1642	0.5212
1633	0.6322
1624	0.6961
1615	0.7067
1606	0.6948
1597	0.6101
1588	0.398
1579	0.4154
1570	0.3207
1561	0.2249
1552	0.1279
1543	0.0872
1534	0.1904
1525	0.356
1516	0.5238
1507	0.6241
1498	0.6382
1489	0.4962
1480	0.2006
1471	0.1392
1462	0.1858
1453	0.3094
1444	0.4115
1435	0.5155
1426	0.5835
1417	0.615
1408	0.6275
1399	0.512
1390	0.5667
1381	0.5333
1372	0.5527
1363	0.501
1354	0.1895
1345	0.2801
1336	0.4755
1327	0.5798
1318	0.6332
1309	0.6776
1300	0.6744
1291	0.6694
1282	0.6526
1273	0.5206
1264	0.3945
1255	0.5688
1246	0.595
1237	0.497
1228	0.4967
1219	0.6239
1210	0.6707
1201	0.6896
1192	0.6451
1183	0.495
1174	0.1373
1165	0.0416
1156	0.245
1147	0.597
1138	0.7006
1129	0.6988
1120	0.6169
1111	0.4341
1102	0.3566
1093	0.1135
1084	0.2069
1075	0.5964
1066	0.6946
1057	0.7517
1048	0.7615
1039	0.6575
1030	0.64
1021	0.7437
1012	0.4866
1003	0.7771
994	0.7456
985	0.6122
976	0.699
967	0.7678
958	0.8214
949	0.814
940	0.8264
931	0.8253
922	0.7697
913	0.6131
904	0.3466
895	0.5001
886	0.3914
877	0.3764
868	0.4822
859	0.6818
850	0.7389
841	0.7407
832	0.6794
823	0.1968
814	0.7111
805	0.7989
796	0.8094
787	0.79
778	0.7158
769	0.6692
760	0.4688
751	0.3848
742	0.7021
733	0.6536
724	0.5892
715	0.4884
706	0.44
697	0.4098
688	0.4456
679	0.4916
670	0.5547
