Infrared Spectrum: TRIETHYLENE GLYCOL, BIS[2-ETHYLHEXYL] ETSER
Formula: C22 H42 O6
CAS: 94-28-0
State: SOLUTION (10% CCl4 FOR 2.7-7.5, 10% CS2 FOR 7.5-26 MICRON) VS SOLVENT
Class: COBLENTZ III
Instrument: DOW KBr FOREPRISM-GRATING
Instrument parameters: BLAZED AT 3.5, 12.0, 20.0 MICRON AND CHANGED AT 5.0, 7.5, 14.9 MICRON
Sampling: TRANSMISSION
Path length: 0.011 CM, 0.011 CM
Resolution: 2
Origin: DOW CHEMICAL COMPANY
1/CM	TRANSMITTANCE
3800	0.8632
3791	0.8627
3782	0.8627
3773	0.8625
3764	0.8628
3755	0.8632
3746	0.8635
3737	0.8638
3728	0.8638
3719	0.863
3710	0.8627
3701	0.8624
3692	0.8621
3683	0.8616
3674	0.8609
3665	0.861
3656	0.8615
3647	0.8618
3638	0.8623
3629	0.8623
3620	0.8621
3611	0.86
3602	0.8574
3593	0.8564
3584	0.8602
3575	0.8639
3566	0.8634
3557	0.8605
3548	0.8575
3539	0.8557
3530	0.8545
3521	0.8554
3512	0.8571
3503	0.8594
3494	0.8624
3485	0.8651
3476	0.8668
3467	0.8653
3458	0.8584
3449	0.852
3440	0.8488
3431	0.8525
3422	0.8623
3413	0.8717
3404	0.8802
3395	0.8854
3386	0.8884
3377	0.8906
3368	0.8921
3359	0.8923
3350	0.8925
3341	0.8925
3332	0.8921
3323	0.8916
3314	0.8911
3305	0.8905
3296	0.89
3287	0.8894
3278	0.889
3269	0.8884
3260	0.888
3251	0.8873
3242	0.8862
3233	0.8849
3224	0.8832
3215	0.8814
3206	0.88
3197	0.8786
3188	0.877
3179	0.8758
3170	0.8754
3161	0.8749
3152	0.8745
3143	0.874
3134	0.8735
3125	0.8715
3116	0.8694
3107	0.8671
3098	0.8647
3089	0.8621
3080	0.8596
3071	0.8563
3062	0.8513
3053	0.8447
3044	0.8371
3035	0.8237
3026	0.8018
3017	0.7701
3008	0.7262
2999	0.6287
2990	0.4912
2981	0.308
2972	0.0786
2963	0.0312
2954	0.0292
2945	0.0477
2936	0.0483
2927	0.0482
2918	0.0799
2909	0.1262
2900	0.1725
2891	0.2016
2882	0.2026
2873	0.0876
2864	0.1192
2855	0.1385
2846	0.4393
2837	0.5507
2828	0.6006
2819	0.6525
2810	0.6889
2801	0.7158
2792	0.7351
2783	0.751
2774	0.7665
2765	0.7828
2756	0.7921
2747	0.7915
2738	0.788
2729	0.7865
2720	0.7935
2711	0.8048
2702	0.8155
2693	0.8238
2684	0.8315
2675	0.8381
2666	0.8439
2657	0.8494
2648	0.8545
2639	0.8583
2630	0.8611
2621	0.8621
2612	0.8625
2603	0.8624
2594	0.8621
2585	0.8623
2576	0.8632
2567	0.8652
2558	0.8678
2549	0.8698
2540	0.8717
2531	0.8718
2522	0.8721
2513	0.8721
2504	0.8721
2495	0.8731
2486	0.8745
2477	0.8763
2468	0.8777
2459	0.8784
2450	0.8783
2441	0.8782
2432	0.8771
2423	0.8759
2414	0.8746
2405	0.8736
2396	0.8725
2387	0.8718
2378	0.8721
2369	0.874
2360	0.8754
2351	0.8764
2342	0.8768
2333	0.8766
2324	0.8741
2315	0.8662
2306	0.8655
2297	0.8612
2288	0.8641
2279	0.8662
2270	0.8678
2261	0.8692
2252	0.8705
2243	0.8717
2234	0.8727
2225	0.8741
2216	0.8762
2207	0.8771
2198	0.8767
2189	0.876
2180	0.8856
2171	0.8799
2162	0.8774
2153	0.878
2144	0.8792
2135	0.8802
2126	0.8804
2117	0.8804
2108	0.8799
2099	0.8792
2090	0.878
2081	0.8768
2072	0.8755
2063	0.873
2054	0.8708
2045	0.8686
2036	0.8671
2027	0.8659
2018	0.8651
2009	0.8646
2000	0.8631
1991	0.8571
1982	0.8558
1973	0.8555
1964	0.8557
1955	0.8567
1946	0.858
1937	0.8596
1928	0.8609
1919	0.8609
1910	0.8613
1901	0.8621
1892	0.864
1883	0.8657
1874	0.8668
1865	0.8668
1856	0.8663
1847	0.8652
1838	0.8625
1829	0.8593
1820	0.8545
1811	0.8467
1802	0.837
1793	0.8231
1784	0.8033
1775	0.7692
1766	0.7138
1757	0.6525
1748	0.3825
1739	0.0166
1730	0.0037
1721	0.0216
1712	0.4155
1703	0.5895
1694	0.6668
1685	0.724
1676	0.773
1667	0.7986
1658	0.8132
1649	0.8232
1640	0.8303
1631	0.8356
1622	0.8398
1613	0.8433
1604	0.8463
1595	0.8498
1586	0.8535
1577	0.8538
1568	0.8521
1559	0.854
1550	0.856
1541	0.8555
1532	0.8454
1523	0.8374
1514	0.831
1505	0.8165
1496	0.7967
1487	0.7041
1478	0.6484
1469	0.2261
1460	0.1824
1451	0.3968
1442	0.465
1433	0.633
1424	0.7067
1415	0.7028
1406	0.6592
1397	0.4725
1388	0.3462
1379	0.3916
1370	0.5233
1361	0.5337
1352	0.4301
1343	0.5153
1334	0.5848
1325	0.5783
1316	0.5898
1307	0.5773
1298	0.4939
1289	0.4289
1280	0.3816
1271	0.3773
1262	0.278
1253	0.2917
1244	0.2945
1235	0.38
1226	0.3445
1217	0.3372
1208	0.3414
1199	0.3471
1190	0.3322
1181	0.134
1172	0.0285
1163	0.0505
1154	0.1505
1145	0.0708
1136	0.0515
1127	0.0601
1118	0.0791
1109	0.1353
1100	0.2053
1091	0.1851
1082	0.3664
1073	0.3786
1064	0.4272
1055	0.4599
1046	0.4368
1037	0.414
1028	0.5259
1019	0.6114
1010	0.6607
1001	0.6626
992	0.6568
983	0.6865
974	0.6986
965	0.6237
956	0.5653
947	0.5805
938	0.6185
929	0.6564
920	0.6944
911	0.7241
902	0.7575
893	0.7631
884	0.7549
875	0.7248
866	0.6765
857	0.6907
848	0.7439
839	0.7638
830	0.7688
821	0.7746
812	0.7628
803	0.7533
794	0.7484
785	0.7588
776	0.7864
767	0.816
758	0.8054
749	0.7438
740	0.7818
731	0.753
722	0.8099
713	0.8624
704	0.8745
695	0.877
686	0.8709
677	0.8675
668	0.8685
659	0.8736
650	0.8516
641	0.8518
632	0.8568
623	0.8595
614	0.8542
605	0.8471
596	0.8442
587	0.844
578	0.8408
569	0.8286
560	0.8111
551	0.7915
542	0.7856
533	0.7825
524	0.7732
515	0.7711
506	0.7725
497	0.7749
488	0.7801
479	0.7888
470	0.7961
461	0.8008
452	0.8033
443	0.8025
434	0.8012
425	0.8007
416	0.8004
407	0.8014
398	0.8032
