Infrared Spectrum: Benzoyl peroxide
Formula: C14 H10 O4
CAS: 94-36-0
State: SOLID (OIL MULL)
Class: COBLENTZ III
Instrument: BAIRD (GRATING)
Instrument parameters: NaCl PRISM
Resolution: 2
Origin: WYANDOTTE CHEMICALS CORP.
1/CM	TRANSMITTANCE
626	0.5537
635	0.6071
644	0.6566
653	0.7041
662	0.6283
671	0.6638
680	0.5265
689	0.1555
698	0.0751
707	0.1306
716	0.6269
725	0.819
734	0.8698
743	0.9115
752	0.9464
761	0.9913
770	1.0033
779	1.005
788	0.737
797	0.9837
806	1.0055
815	1.0022
824	0.9742
833	0.8584
842	0.5245
851	0.7614
860	0.8913
869	0.8896
878	0.8576
887	0.7809
896	0.8387
905	0.8361
914	0.7985
923	0.7722
932	0.6828
941	0.6327
950	0.646
959	0.6011
968	0.5175
977	0.3588
986	0.1747
995	0.0315
1004	0.034
1013	0.3125
1022	0.5093
1031	0.4014
1040	0.3265
1049	0.8023
1058	0.8336
1067	0.7836
1076	0.6399
1085	0.8306
1094	0.7995
1103	0.823
1112	0.8387
1121	0.802
1130	0.7901
1139	0.7529
1148	0.6883
1157	0.6311
1166	0.5235
1175	0.2983
1184	0.4357
1193	0.6197
1202	0.4235
1211	0.2302
1220	0.0485
1229	0.0376
1238	0.0865
1247	0.3802
1256	0.475
1265	0.6455
1274	0.7953
1283	0.6873
1292	0.797
1301	0.8568
1310	0.729
1319	0.5854
1328	0.732
1337	0.9321
1346	0.8938
1355	0.8622
1364	0.8719
1373	0.7832
1382	0.6648
1391	0.8269
1400	0.856
1409	0.8393
1418	0.8759
1427	0.8795
1436	0.826
1445	0.6476
1454	0.2243
1463	0.3628
1472	0.4589
1481	0.6032
1490	0.7474
1499	0.7756
1508	0.8593
1517	0.869
1526	0.8642
1535	0.8543
1544	0.846
1553	0.8418
1562	0.8215
1571	0.7907
1580	0.768
1589	0.6784
1598	0.5833
1607	0.4093
1616	0.6612
1625	0.8871
1634	0.8384
1643	0.8043
1652	0.7663
1661	0.7832
1670	0.7892
1679	0.7676
1688	0.7437
1697	0.7161
1706	0.6889
1715	0.6651
1724	0.5686
1733	0.4294
1742	0.2602
1751	0.0632
1760	0.0809
1769	0.1413
1778	0.1337
1787	0.4126
1796	0.6889
1805	0.7842
1814	0.784
1823	0.7607
1832	0.7678
1841	0.7815
1850	0.8056
1859	0.809
1868	0.7994
1877	0.7965
1886	0.8186
1895	0.8178
1904	0.7673
1913	0.7623
1922	0.7883
1931	0.8119
1940	0.8161
1949	0.8072
1958	0.7775
1967	0.7576
1976	0.7556
1985	0.7679
1994	0.7877
2003	0.7913
2012	0.7902
2021	0.7882
2030	0.7851
2039	0.7817
2048	0.7781
2057	0.774
2066	0.771
2075	0.7719
2084	0.7746
2093	0.7726
2102	0.7656
2111	0.7591
2120	0.7552
2129	0.7546
2138	0.7466
2147	0.745
2156	0.7448
2165	0.7431
2174	0.7374
2183	0.7304
2192	0.7247
2201	0.7225
2210	0.722
2219	0.721
2228	0.7183
2237	0.7157
2246	0.7131
2255	0.7104
2264	0.7054
2273	0.699
2282	0.691
2291	0.6836
2300	0.6779
2309	0.6752
2318	0.6753
2327	0.6777
2336	0.6807
2345	0.6839
2354	0.6837
2363	0.6801
2372	0.6766
2381	0.6739
2390	0.6719
2399	0.669
2408	0.6633
2417	0.6507
2426	0.6409
2435	0.6457
2444	0.6617
2453	0.6691
2462	0.6709
2471	0.6709
2480	0.6688
2489	0.666
2498	0.662
2507	0.6572
2516	0.6519
2525	0.647
2534	0.6423
2543	0.6378
2552	0.6344
2561	0.6313
2570	0.6289
2579	0.6269
2588	0.6254
2597	0.6242
2606	0.6226
2615	0.6191
2624	0.614
2633	0.6101
2642	0.6077
2651	0.6059
2660	0.6043
2669	0.6028
2678	0.6016
2687	0.6005
2696	0.6
2705	0.5996
2714	0.5998
2723	0.6004
2732	0.6014
2741	0.6016
2750	0.6015
2759	0.6006
2768	0.5984
2777	0.5926
2786	0.5828
2795	0.564
2804	0.5436
2813	0.5232
2822	0.4626
2831	0.2622
2840	0.1523
2849	0.1516
2858	0.1603
2867	0.1695
2876	0.1741
2885	0.1455
2894	0.1102
2903	0.0751
2912	0.0494
2921	0.0451
2930	0.0459
2939	0.0487
2948	0.0552
2957	0.0989
2966	0.1456
2975	0.1922
2984	0.2385
2993	0.2844
3002	0.3301
3011	0.3755
3020	0.4101
3029	0.4091
3038	0.4058
3047	0.403
3056	0.4058
3065	0.4207
3074	0.4357
3083	0.4449
3092	0.4498
3101	0.4532
3110	0.4559
3119	0.4575
3128	0.4587
3137	0.4593
3146	0.4598
3155	0.4599
3164	0.4599
3173	0.4596
3182	0.4595
3191	0.4597
3200	0.4602
3209	0.4618
3218	0.4636
3227	0.4634
3236	0.4609
3245	0.4579
3254	0.4555
3263	0.4539
3272	0.4537
3281	0.4537
3290	0.4539
3299	0.454
3308	0.4534
3317	0.4527
3326	0.4513
3335	0.4494
3344	0.4475
3353	0.4455
3362	0.4436
3371	0.4415
3380	0.4394
3389	0.4372
3398	0.435
3407	0.4329
3416	0.4309
3425	0.429
3434	0.4271
3443	0.4253
3452	0.4243
3461	0.4232
3470	0.4222
3479	0.4208
3488	0.4185
3497	0.4166
3506	0.4158
3515	0.4149
3524	0.4155
3533	0.4163
3542	0.4171
3551	0.4179
3560	0.4186
3569	0.4187
3578	0.4188
3587	0.4183
3596	0.4176
3605	0.4169
3614	0.4163
3623	0.4156
3632	0.4149
3641	0.4142
3650	0.4134
3659	0.4126
3668	0.4116
3677	0.4108
3686	0.41
3695	0.4091
3704	0.4082
3713	0.4074
3722	0.4065
3731	0.4057
3740	0.4048
3749	0.4039
3758	0.4028
3767	0.4017
3776	0.4006
3785	0.3995
3794	0.3983
3803	0.3967
3812	0.3947
3821	0.3928
3830	0.3909
3839	0.3889
3848	0.3867
3857	0.3846
3866	0.3827
3875	0.3815
3884	0.3802
3893	0.3794
3902	0.3795
3911	0.3795
3920	0.3798
3929	0.3805
3938	0.3813
3947	0.3821
3956	0.3828
3965	0.3831
3974	0.3832
3983	0.3833
3992	0.3834
