Infrared Spectrum: Nicotinic acid, benzyl ester
Formula: C13 H11 N O2
CAS: 94-44-0
State: SOLUTION (10% CCl4 FOR 3800-1330, 10% CS2 FOR 1330-400 CM^-^1)
Class: COBLENTZ III
Instrument: DOW KBr FOREPRISM-GRATING
Instrument parameters: BLAZED AT 3.5, 12.0, 20.0 MICRON AND CHANGED AT 5.0, 7.5, 14.9 MICRON
Sampling: TRANSMISSION
Path length: 0.011 CM, 0.011 CM
Resolution: 2
Origin: DOW CHEMICAL COMPANY
1/CM	TRANSMITTANCE
3796	0.9285
3787	0.9284
3778	0.9281
3769	0.9285
3760	0.9291
3751	0.928
3742	0.9285
3733	0.9281
3724	0.9277
3715	0.925
3706	0.9237
3697	0.9204
3688	0.9142
3679	0.8973
3670	0.9031
3661	0.9102
3652	0.9144
3643	0.9141
3634	0.9116
3625	0.9099
3616	0.9069
3607	0.9062
3598	0.9072
3589	0.9078
3580	0.8854
3571	0.8916
3562	0.8933
3553	0.8909
3544	0.8892
3535	0.8879
3526	0.8846
3517	0.883
3508	0.8814
3499	0.8796
3490	0.8774
3481	0.8753
3472	0.8719
3463	0.8657
3454	0.8562
3445	0.8412
3436	0.8295
3427	0.8279
3418	0.8328
3409	0.8414
3400	0.8462
3391	0.8483
3382	0.8499
3373	0.8512
3364	0.8525
3355	0.8539
3346	0.8551
3337	0.8577
3328	0.858
3319	0.8589
3310	0.8609
3301	0.8622
3292	0.865
3283	0.8692
3274	0.8715
3265	0.8736
3256	0.8741
3247	0.8766
3238	0.878
3229	0.8793
3220	0.8804
3211	0.8808
3202	0.8796
3193	0.8809
3184	0.8782
3175	0.8742
3166	0.8762
3157	0.8791
3148	0.8761
3139	0.875
3130	0.8795
3121	0.8785
3112	0.8371
3103	0.8414
3094	0.6675
3085	0.7349
3076	0.7553
3067	0.6145
3058	0.6622
3049	0.6591
3040	0.553
3031	0.5644
3022	0.718
3013	0.7952
3004	0.8082
2995	0.8139
2986	0.801
2977	0.7693
2968	0.7714
2959	0.7057
2950	0.7028
2941	0.7683
2932	0.8072
2923	0.8284
2914	0.839
2905	0.8422
2896	0.8193
2887	0.8128
2878	0.823
2869	0.8397
2860	0.8532
2851	0.8633
2842	0.8722
2833	0.8778
2824	0.8822
2815	0.8867
2806	0.8926
2797	0.8965
2788	0.899
2779	0.9033
2770	0.9052
2761	0.9064
2752	0.9077
2743	0.9093
2734	0.9108
2725	0.9124
2716	0.9139
2707	0.9152
2698	0.9161
2689	0.9166
2680	0.9168
2671	0.9161
2662	0.9158
2653	0.917
2644	0.9158
2635	0.9144
2626	0.9117
2617	0.9079
2608	0.9063
2599	0.9086
2590	0.912
2581	0.9141
2572	0.9155
2563	0.9148
2554	0.913
2545	0.912
2536	0.9119
2527	0.912
2518	0.9124
2509	0.9128
2500	0.9135
2491	0.9143
2482	0.9151
2473	0.9167
2464	0.9168
2455	0.9155
2446	0.9167
2437	0.9161
2428	0.9155
2419	0.9143
2410	0.9114
2401	0.9093
2392	0.9047
2383	0.9042
2374	0.9129
2365	0.9158
2356	0.9226
2347	0.9253
2338	0.9241
2329	0.9241
2320	0.9233
2311	0.9184
2302	0.9159
2293	0.9147
2284	0.9124
2275	0.9104
2266	0.9096
2257	0.9074
2248	0.9072
2239	0.9073
2230	0.9045
2221	0.9039
2212	0.9073
2203	0.9096
2194	0.9112
2185	0.9109
2176	0.9129
2167	0.9119
2158	0.9121
2149	0.9118
2140	0.9113
2131	0.9108
2122	0.9096
2113	0.9113
2104	0.909
2095	0.906
2086	0.903
2077	0.9015
2068	0.9024
2059	0.9026
2050	0.9049
2041	0.9051
2032	0.906
2023	0.9068
2014	0.905
2005	0.9029
1996	0.8952
1987	0.8937
1978	0.8769
1969	0.8688
1960	0.851
1951	0.8295
1942	0.8623
1933	0.8686
1924	0.848
1915	0.8726
1906	0.8508
1897	0.8574
1888	0.8681
1879	0.8609
1870	0.8533
1861	0.8615
1852	0.8711
1843	0.8792
1834	0.8808
1825	0.869
1816	0.8543
1807	0.8246
1798	0.8093
1789	0.8239
1780	0.8256
1771	0.8129
1762	0.7838
1753	0.705
1744	0.3819
1735	0.0658
1726	0.007
1717	0.0444
1708	0.4736
1699	0.6463
1690	0.6992
1681	0.7192
1672	0.7782
1663	0.7929
1654	0.8032
1645	0.8163
1636	0.8251
1627	0.825
1618	0.8075
1609	0.7847
1600	0.6584
1591	0.0666
1582	0.5202
1573	0.5194
1564	0.6745
1555	0.7458
1546	0.7338
1537	0.7281
1528	0.7765
1519	0.7981
1510	0.8033
1501	0.6603
1492	0.7267
1483	0.8157
1474	0.6411
1465	0.6488
1456	0.3432
1447	0.6147
1438	0.7248
1429	0.6574
1420	0.1706
1411	0.6082
1402	0.7999
1393	0.8042
1384	0.7312
1375	0.3283
1366	0.6951
1357	0.7765
1348	0.8051
1339	0.7827
1330	0.6236
1321	0.5615
1312	0.6179
1303	0.553
1294	0.2813
1285	0.0172
1276	0.01
1267	0.0233
1258	0.2627
1249	0.4094
1240	0.4905
1231	0.5095
1222	0.6886
1213	0.5718
1204	0.6948
1195	0.462
1186	0.7098
1177	0.7572
1168	0.7786
1159	0.7747
1150	0.7473
1141	0.6552
1132	0.1918
1123	0.1127
1114	0.0618
1105	0.0292
1096	0.3197
1087	0.4694
1078	0.4521
1069	0.7286
1060	0.8181
1051	0.8219
1042	0.8059
1033	0.6652
1024	0.2258
1015	0.4991
1006	0.7352
997	0.7603
988	0.7387
979	0.7043
970	0.656
961	0.6099
952	0.6444
943	0.6369
934	0.7121
925	0.793
916	0.7936
907	0.5929
898	0.7811
889	0.7935
880	0.7872
871	0.8279
862	0.8355
853	0.8229
844	0.8118
835	0.8084
826	0.6964
817	0.7336
808	0.7438
799	0.7923
790	0.8437
781	0.85
772	0.8181
763	0.7798
754	0.3901
745	0.1008
736	0.0343
727	0.4611
718	0.6588
709	0.5987
700	0.0825
691	0.1191
682	0.7599
673	0.8043
664	0.8687
655	0.892
646	0.8756
637	0.8749
628	0.8672
619	0.6318
610	0.8396
601	0.6687
592	0.7809
583	0.7118
574	0.8469
565	0.8742
556	0.8782
547	0.8771
538	0.8637
529	0.7473
520	0.7544
511	0.788
502	0.818
493	0.8421
484	0.8532
475	0.8505
466	0.8251
457	0.7835
448	0.7921
439	0.7996
430	0.7658
421	0.7064
412	0.6167
403	0.3951
394	0.2956
385	0.2496
