Infrared Spectrum: Polyethylene-glycol (200) dibenzoate
Formula: C16 H14 O4
CAS: 94-49-5
State: SOLUTION (10% CCl4 FOR 2.7-7.5, CS2 FOR 7.5-26 MICRON) VS SOLVENT
Class: COBLENTZ III
Instrument: DOW KBr FOREPRISM-GRATING
Instrument parameters: BLAZED AT 3.5, 12.0, 20.0 MICRON AND CHANGED AT 5.0, 7.5, 14.9 MICRON
Sampling: TRANSMISSION
Path length: 0.011 CM, 0.011 CM
Resolution: 2
Origin: DOW CHEMICAL COMPANY
1/CM	TRANSMITTANCE
3800	0.8582
3791	0.8571
3782	0.856
3773	0.8571
3764	0.8598
3755	0.8571
3746	0.856
3737	0.857
3728	0.8578
3719	0.8581
3710	0.8584
3701	0.8585
3692	0.8583
3683	0.8568
3674	0.8504
3665	0.8418
3656	0.8442
3647	0.8473
3638	0.8477
3629	0.846
3620	0.8418
3611	0.8328
3602	0.8235
3593	0.8153
3584	0.8082
3575	0.8061
3566	0.8069
3557	0.808
3548	0.808
3539	0.8068
3530	0.8033
3521	0.7993
3512	0.7956
3503	0.7936
3494	0.7951
3485	0.8017
3476	0.8095
3467	0.8171
3458	0.824
3449	0.8298
3440	0.8346
3431	0.838
3422	0.8381
3413	0.8371
3404	0.8424
3395	0.8517
3386	0.8596
3377	0.8648
3368	0.8688
3359	0.872
3350	0.875
3341	0.8782
3332	0.8807
3323	0.8823
3314	0.8818
3305	0.8825
3296	0.8844
3287	0.8864
3278	0.8874
3269	0.8882
3260	0.8889
3251	0.8896
3242	0.8901
3233	0.8905
3224	0.891
3215	0.8915
3206	0.892
3197	0.8924
3188	0.8925
3179	0.8925
3170	0.8924
3161	0.8921
3152	0.892
3143	0.8914
3134	0.8909
3125	0.8895
3116	0.8875
3107	0.88
3098	0.8699
3089	0.8599
3080	0.8233
3071	0.8167
3062	0.7661
3053	0.7755
3044	0.8198
3035	0.8084
3026	0.7915
3017	0.8158
3008	0.8235
2999	0.7975
2990	0.7547
2981	0.6828
2972	0.5972
2963	0.3371
2954	0.2826
2945	0.2364
2936	0.218
2927	0.213
2918	0.187
2909	0.133
2900	0.1151
2891	0.0992
2882	0.0806
2873	0.0692
2864	0.0688
2855	0.0935
2846	0.1683
2837	0.3266
2828	0.4177
2819	0.4623
2810	0.5125
2801	0.5538
2792	0.5839
2783	0.6162
2774	0.6504
2765	0.683
2756	0.7011
2747	0.7158
2738	0.7222
2729	0.7258
2720	0.7315
2711	0.7406
2702	0.7508
2693	0.7601
2684	0.7764
2675	0.8012
2666	0.8225
2657	0.8408
2648	0.8514
2639	0.8553
2630	0.8571
2621	0.8581
2612	0.8582
2603	0.8584
2594	0.8589
2585	0.8593
2576	0.8595
2567	0.8621
2558	0.8662
2549	0.8675
2540	0.8674
2531	0.8675
2522	0.8681
2513	0.8694
2504	0.8711
2495	0.8728
2486	0.8746
2477	0.8762
2468	0.8785
2459	0.8804
2450	0.8812
2441	0.8798
2432	0.8786
2423	0.878
2414	0.8785
2405	0.878
2396	0.8771
2387	0.8775
2378	0.8784
2369	0.8789
2360	0.8795
2351	0.88
2342	0.8793
2333	0.8799
2324	0.8808
2315	0.8656
2306	0.8707
2297	0.8628
2288	0.8648
2279	0.8643
2270	0.8653
2261	0.8645
2252	0.8636
2243	0.8667
2234	0.8693
2225	0.8714
2216	0.8725
2207	0.8721
2198	0.8717
2189	0.8707
2180	0.8718
2171	0.8737
2162	0.8677
2153	0.8678
2144	0.8675
2135	0.8671
2126	0.8658
2117	0.8652
2108	0.8668
2099	0.8681
2090	0.8693
2081	0.8707
2072	0.8723
2063	0.8739
2054	0.8742
2045	0.8735
2036	0.8711
2027	0.8683
2018	0.8645
2009	0.8601
2000	0.8536
1991	0.8453
1982	0.8366
1973	0.8289
1964	0.8202
1955	0.8084
1946	0.8175
1937	0.8289
1928	0.836
1919	0.8374
1910	0.8331
1901	0.8325
1892	0.8455
1883	0.858
1874	0.866
1865	0.8702
1856	0.8732
1847	0.8748
1838	0.8754
1829	0.8739
1820	0.8668
1811	0.8455
1802	0.8487
1793	0.8518
1784	0.8477
1775	0.8297
1766	0.8131
1757	0.8057
1748	0.7791
1739	0.7044
1730	0.278
1721	0.0168
1712	0.0224
1703	0.415
1694	0.7011
1685	0.7565
1676	0.7665
1667	0.7997
1658	0.8186
1649	0.8136
1640	0.7917
1631	0.7933
1622	0.8015
1613	0.7972
1604	0.7812
1595	0.7475
1586	0.8087
1577	0.7947
1568	0.834
1559	0.8436
1550	0.8473
1541	0.8567
1532	0.853
1523	0.8493
1514	0.8454
1505	0.8349
1496	0.8105
1487	0.637
1478	0.6587
1469	0.4915
1460	0.4396
1451	0.1928
1442	0.5078
1433	0.633
1424	0.7325
1415	0.7418
1406	0.7244
1397	0.6775
1388	0.6353
1379	0.5917
1370	0.5312
1361	0.4731
1352	0.3698
1343	0.4616
1334	0.5591
1325	0.5431
1316	0.4737
1307	0.419
1298	0.3444
1289	0.2753
1280	0.1078
1271	0.0045
1262	0.0396
1253	0.2111
1244	0.1852
1235	0.3671
1226	0.528
1217	0.5991
1208	0.6302
1199	0.6511
1190	0.6468
1181	0.5542
1172	0.3096
1163	0.3133
1154	0.1166
1145	0.03
1136	0.02
1127	0.0182
1118	0.0124
1109	0.0057
1100	0.0041
1091	0.0139
1082	0.1219
1073	0.232
1064	0.2087
1055	0.383
1046	0.3857
1037	0.3376
1028	0.3088
1019	0.5057
1010	0.5687
1001	0.5775
992	0.551
983	0.5672
974	0.5931
965	0.6025
956	0.4793
947	0.4095
938	0.4272
929	0.4877
920	0.5517
911	0.6051
902	0.6528
893	0.6808
884	0.6521
875	0.581
866	0.5602
857	0.5491
848	0.543
839	0.5714
830	0.631
821	0.7003
812	0.7317
803	0.7324
794	0.7587
785	0.7969
776	0.8215
767	0.836
758	0.8378
749	0.8337
740	0.8261
731	0.8087
722	0.663
713	0.1779
704	0.4614
695	0.7338
686	0.6219
677	0.753
668	0.7787
659	0.8271
650	0.8138
641	0.8204
632	0.8259
623	0.8236
614	0.8042
605	0.8018
596	0.7985
587	0.79
578	0.7731
569	0.7578
560	0.745
551	0.7354
542	0.731
533	0.7257
524	0.7171
515	0.7193
506	0.7258
497	0.7356
488	0.7406
479	0.7415
470	0.743
461	0.7493
452	0.7575
443	0.7607
434	0.7608
425	0.7612
416	0.763
407	0.766
398	0.7681
