Infrared Spectrum: 1-(3,4-Methylenedioxyphenyl)propane
Formula: C 10 H 12 O 2
CAS: 94-58-6
State: gas
Origin: EPA-IR VAPOR PHASE LIBRARY
1/CM	ABSORBANCE
549.8	0.0003964
559.445	0.0002319
569.09	0.0004685
578.734	0.0009943
588.379	0.001343
598.024	0.002453
607.669	0.002533
617.313	0.002423
626.958	0.002633
636.603	0.002223
646.248	0.001203
655.893	0.0006796
665.537	0.0005973
675.182	0.0005089
684.827	0.000519
694.472	0.0005512
704.116	0.0011207
713.761	0.001803
723.406	0.002333
733.051	0.002673
742.695	0.001943
752.34	0.002023
761.985	0.002873
771.63	0.004233
781.275	0.007713
790.919	0.012813
800.564	0.017283
810.209	0.016873
819.854	0.009383
829.498	0.004723
839.143	0.004933
848.788	0.006503
858.433	0.006413
868.078	0.005703
877.722	0.003663
887.367	0.002733
897.012	0.002983
906.657	0.004573
916.301	0.009003
925.946	0.014423
935.591	0.018993
945.236	0.020623
954.88	0.015533
964.525	0.006903
974.17	0.003693
983.815	0.002663
993.46	0.002743
1003.1	0.003773
1012.75	0.006193
1022.39	0.011383
1032.04	0.021663
1041.68	0.037013
1051.33	0.040343
1060.97	0.028943
1070.62	0.017333
1080.26	0.012233
1089.91	0.010823
1099.55	0.012103
1109.2	0.011623
1118.84	0.011543
1128.49	0.008273
1138.13	0.004613
1147.78	0.003063
1157.42	0.002953
1167.07	0.004203
1176.71	0.011033
1186.36	0.028673
1196	0.028443
1205.64	0.023373
1215.29	0.025133
1224.93	0.029463
1234.58	0.054403
1244.22	0.089553
1253.87	0.067993
1263.51	0.024483
1273.16	0.011513
1282.8	0.007893
1292.45	0.006283
1302.09	0.005703
1311.74	0.005833
1321.38	0.006503
1331.03	0.008113
1340.67	0.010613
1350.32	0.013363
1359.96	0.011473
1369.61	0.006253
1379.25	0.005213
1388.9	0.005263
1398.54	0.004673
1408.18	0.005063
1417.83	0.008343
1427.47	0.017543
1437.12	0.035203
1446.76	0.036233
1456.41	0.020283
1466.05	0.020673
1475.7	0.039603
1485.34	0.084743
1494.99	0.083633
1504.63	0.043183
1514.28	0.022163
1523.92	0.007993
1533.57	0.005013
1543.21	0.003693
1552.86	0.002833
1562.5	0.002283
1572.15	0.002233
1581.79	0.002413
1591.44	0.002983
1601.08	0.003633
1610.73	0.003983
1620.37	0.003063
1630.01	0.002163
1639.66	0.001743
1649.3	0.001333
1658.95	0.0011053
1668.59	0.0009678
1678.24	0.0010189
1687.88	0.001233
1697.53	0.001513
1707.17	0.001773
1716.82	0.001603
1726.46	0.001473
1736.11	0.001423
1745.75	0.001383
1755.4	0.001503
1765.04	0.001523
1774.69	0.001273
1784.33	0.0011024
1793.98	0.000981
1803.62	0.0010524
1813.27	0.001333
1822.91	0.001963
1832.55	0.002353
1842.2	0.002183
1851.84	0.001873
1861.49	0.001993
1871.13	0.002083
1880.78	0.001903
1890.42	0.001543
1900.07	0.0011805
1909.71	0.0009274
1919.36	0.000898
1929	0.0007782
1938.65	0.0007485
1948.29	0.0007726
1957.94	0.0007762
1967.58	0.0008551
1977.23	0.0009134
1986.87	0.0009332
1996.52	0.0009974
2006.16	0.0010476
2015.81	0.0010845
2025.45	0.0011352
2035.1	0.001223
2044.74	0.001373
2054.38	0.001293
2064.03	0.0011438
2073.67	0.0010055
2083.32	0.0009625
2092.96	0.0008314
2102.61	0.0006727
2112.25	0.0006917
2121.9	0.0006474
2131.54	0.0007214
2141.19	0.00072
2150.83	0.00066
2160.48	0.0006912
2170.12	0.0006531
2179.77	0.0008351
2189.41	0.0007691
2199.06	0.0008156
2208.7	0.0008298
2218.35	0.0007622
2227.99	0.0006958
2237.64	0.0007698
2247.28	0.000742
2256.92	0.0008107
2266.57	0.0006964
2276.21	0.0007694
2285.86	0.0008385
2295.5	0.0009327
2305.15	0.0009664
2314.79	0.0009261
2324.44	0.0007697
2334.08	0.0006531
2343.73	0.0006886
2353.37	0.0007115
2363.02	0.0006871
2372.66	0.0007752
2382.31	0.0006975
2391.95	0.0006192
2401.6	0.0005985
2411.24	0.0005698
2420.89	0.0005798
2430.53	0.000617
2440.18	0.0005914
2449.82	0.0005728
2459.47	0.0005035
2469.11	0.0005731
2478.75	0.0006008
2488.4	0.0006188
2498.04	0.0007407
2507.69	0.0006332
2517.33	0.0007374
2526.98	0.0008938
2536.62	0.0011364
2546.27	0.0011061
2555.91	0.0009476
2565.56	0.0009881
2575.2	0.0010114
2584.85	0.0011498
2594.49	0.0010874
2604.14	0.0011712
2613.78	0.0009728
2623.43	0.0007154
2633.07	0.0007068
2642.72	0.0008842
2652.36	0.0010552
2662.01	0.0011835
2671.65	0.001333
2681.29	0.001333
2690.94	0.001223
2700.58	0.001403
2710.23	0.001323
2719.87	0.001393
2729.52	0.001693
2739.16	0.002073
2748.81	0.002363
2758.45	0.003333
2768.1	0.006193
2777.74	0.006253
2787.39	0.003593
2797.03	0.003123
2806.68	0.003463
2816.32	0.004193
2825.97	0.005303
2835.61	0.007523
2845.26	0.010333
2854.9	0.015983
2864.55	0.024073
2874.19	0.031753
2883.84	0.032533
2893.48	0.025783
2903.12	0.024243
2912.77	0.027923
2922.41	0.034643
2932.06	0.042593
2941.7	0.042993
2951.35	0.033993
2960.99	0.032283
2970.64	0.035123
2980.28	0.024843
2989.93	0.013073
2999.57	0.009723
3009.22	0.009483
3018.86	0.010263
3028.51	0.009733
3038.15	0.009213
3047.8	0.007523
3057.44	0.006063
3067.09	0.005483
3076.73	0.004583
3086.38	0.003583
3096.02	0.002713
3105.67	0.002203
3115.31	0.001773
3124.95	0.0011388
3134.6	0.0009615
3144.24	0.0008741
3153.89	0.0006869
3163.53	0.0005556
3173.18	0.0005908
3182.82	0.0006736
3192.47	0.0006867
3202.11	0.0004398
3211.76	0.0003707
3221.4	0.0004639
3231.05	0.0003271
3240.69	0.0004912
3250.34	0.0004471
3259.98	0.0004416
3269.63	0.0003074
3279.27	0.0004737
3288.92	7.7e-05
3298.56	0.00020996
3308.21	0.00018328
3317.85	0.00023889
3327.49	0.00029074
3337.14	0.0001088
3346.78	0.00023115
3356.43	0.0003251
3366.07	0.00028553
3375.72	0.0001419
3385.36	0.00027875
3395.01	0.0001699
3404.65	0.00020977
3414.3	0.00020059
3423.94	0.0003428
3433.59	0.00019119
3443.23	0.00029137
3452.88	0.00023346
3462.52	0.00021658
3472.17	0.0001592
3481.81	0.00024764
3491.46	0.0001702
3501.1	0.000313
3510.75	0.00025871
3520.39	0.0003726
3530.04	0.0004151
3539.68	0.00028564
3549.32	0.0003222
3558.97	0.00029229
3568.61	0.00022612
3578.26	0.00023304
3587.9	0.0002273
3597.55	0.00029112
3607.19	0.00027889
3616.84	0.00028766
3626.48	0.00026576
3636.13	0.0001812
3645.77	0.0003354
3655.42	0.0001447
3665.06	0.0003137
3674.71	0.00025202
3684.35	0.00028762
3694	0.00023709
3703.64	0.000194279
3713.29	0.0003
3722.93	0.00022771
3732.58	0.0003263
3742.22	0.0003443
3751.86	0.0001511
3761.51	0.0001591
3771.15	0.00022189
3780.8	0.0003021
3790.44	0.0003286
3800.09	0.0001561
3809.73	0.00023149
3819.38	0.0003709
3829.02	0.0004996
3838.67	0.0001507
3848.31	0.0003022
3857.96	0.000319
3867.6	0.00020979
3877.25	0.00023159
3886.89	0.0003309
3896.54	0.000346
3906.18	0.0003371
3915.83	0.00025912
3925.47	0.0004762
3935.12	0.00027692
3944.76	0.000331
3954.41	0.0003372
3964.05	0.0006677
3973.69	0.0005215
3983.34	0.00024476
3992.98	0.0006225
