Infrared Spectrum: Piperonylic acid
Formula: C 8 H 6 O 4
CAS: 94-53-1
State: gas
Origin: EPA-IR VAPOR PHASE LIBRARY
1/CM	ABSORBANCE
549.8	0.002293
559.445	0.003283
569.09	0.008503
578.734	0.010073
588.379	0.005443
598.024	0.004513
607.669	0.003363
617.313	0.003253
626.958	0.005693
636.603	0.007513
646.248	0.006993
655.893	0.003813
665.537	0.001253
675.182	0.0006446
684.827	0.0004511
694.472	0.0007724
704.116	0.001333
713.761	0.004003
723.406	0.004143
733.051	0.002073
742.695	0.004363
752.34	0.008713
761.985	0.013523
771.63	0.009453
781.275	0.004153
790.919	0.002623
800.564	0.003783
810.209	0.004143
819.854	0.003673
829.498	0.003833
839.143	0.002673
848.788	0.001563
858.433	0.001163
868.078	0.001893
877.722	0.003443
887.367	0.004053
897.012	0.004563
906.657	0.005543
916.301	0.004943
925.946	0.004273
935.591	0.006283
945.236	0.007633
954.88	0.005613
964.525	0.002463
974.17	0.001493
983.815	0.001593
993.46	0.001953
1003.1	0.002593
1012.75	0.003843
1022.39	0.006683
1032.04	0.013353
1041.68	0.023373
1051.33	0.029923
1060.97	0.026943
1070.62	0.016153
1080.26	0.011663
1089.91	0.016583
1099.55	0.022583
1109.2	0.022383
1118.84	0.017823
1128.49	0.021113
1138.13	0.030683
1147.78	0.022263
1157.42	0.008213
1167.07	0.006293
1176.71	0.009643
1186.36	0.012243
1196	0.009413
1205.64	0.005523
1215.29	0.005053
1224.93	0.011603
1234.58	0.032263
1244.22	0.051053
1253.87	0.045963
1263.51	0.027423
1273.16	0.012413
1282.8	0.011773
1292.45	0.010573
1302.09	0.007493
1311.74	0.006813
1321.38	0.007663
1331.03	0.008953
1340.67	0.010893
1350.32	0.015093
1359.96	0.018573
1369.61	0.018633
1379.25	0.012493
1388.9	0.005413
1398.54	0.003833
1408.18	0.004513
1417.83	0.008923
1427.47	0.015753
1437.12	0.024673
1446.76	0.028103
1456.41	0.019123
1466.05	0.010013
1475.7	0.012533
1485.34	0.023493
1494.99	0.024173
1504.63	0.015033
1514.28	0.008723
1523.92	0.002963
1533.57	0.001923
1543.21	0.001513
1552.86	0.001273
1562.5	0.001203
1572.15	0.001453
1581.79	0.001873
1591.44	0.002573
1601.08	0.003803
1610.73	0.004693
1620.37	0.005253
1630.01	0.004723
1639.66	0.002733
1649.3	0.001823
1658.95	0.001473
1668.59	0.001213
1678.24	0.001323
1687.88	0.001933
1697.53	0.002943
1707.17	0.003443
1716.82	0.003553
1726.46	0.004463
1736.11	0.011843
1745.75	0.040073
1755.4	0.072793
1765.04	0.052743
1774.69	0.014183
1784.33	0.005233
1793.98	0.003283
1803.62	0.003123
1813.27	0.003363
1822.91	0.002603
1832.55	0.001573
1842.2	0.001173
1851.84	0.001243
1861.49	0.001403
1871.13	0.001423
1880.78	0.001303
1890.42	0.0010103
1900.07	0.0006848
1909.71	0.0006681
1919.36	0.0007696
1929	0.0009225
1938.65	0.0008443
1948.29	0.0006582
1957.94	0.0006124
1967.58	0.0006461
1977.23	0.0006175
1986.87	0.0005494
1996.52	0.0006147
2006.16	0.0006872
2015.81	0.0007392
2025.45	0.00065
2035.1	0.0008072
2044.74	0.000993
2054.38	0.0008885
2064.03	0.0007475
2073.67	0.0006973
2083.32	0.0006852
2092.96	0.000659
2102.61	0.0006043
2112.25	0.0004801
2121.9	0.0004637
2131.54	0.0004391
2141.19	0.0004736
2150.83	0.000459
2160.48	0.0004333
2170.12	0.0005212
2179.77	0.0004613
2189.41	0.0005083
2199.06	0.0004825
2208.7	0.0004382
2218.35	0.0004333
2227.99	0.0004209
2237.64	0.0004918
2247.28	0.0004862
2256.92	0.0004513
2266.57	0.0004995
2276.21	0.0005405
2285.86	0.0006009
2295.5	0.0005482
2305.15	0.0005267
2314.79	0.000563
2324.44	0.0005168
2334.08	0.0004773
2343.73	0.0004051
2353.37	0.0003903
2363.02	0.0005082
2372.66	0.0004286
2382.31	0.0004952
2391.95	0.0004138
2401.6	0.0004558
2411.24	0.0003816
2420.89	0.0004661
2430.53	0.0004004
2440.18	0.0003824
2449.82	0.0004465
2459.47	0.0004268
2469.11	0.0003678
2478.75	0.0004103
2488.4	0.0005315
2498.04	0.000533
2507.69	0.0006227
2517.33	0.0006394
2526.98	0.0004706
2536.62	0.0004631
2546.27	0.0004632
2555.91	0.0005398
2565.56	0.0004574
2575.2	0.000558
2584.85	0.0005881
2594.49	0.000703
2604.14	0.0006719
2613.78	0.0007017
2623.43	0.0006436
2633.07	0.0004868
2642.72	0.0004669
2652.36	0.0005505
2662.01	0.0005217
2671.65	0.0006919
2681.29	0.0006341
2690.94	0.0006524
2700.58	0.0007531
2710.23	0.0008702
2719.87	0.0007368
2729.52	0.0005716
2739.16	0.0006093
2748.81	0.0007618
2758.45	0.0009331
2768.1	0.001303
2777.74	0.002103
2787.39	0.001663
2797.03	0.0008933
2806.68	0.0008177
2816.32	0.0010661
2825.97	0.001253
2835.61	0.001533
2845.26	0.001943
2854.9	0.002453
2864.55	0.003573
2874.19	0.004613
2883.84	0.005243
2893.48	0.005443
2903.12	0.005673
2912.77	0.006153
2922.41	0.005953
2932.06	0.005203
2941.7	0.004723
2951.35	0.004433
2960.99	0.003843
2970.64	0.002943
2980.28	0.002263
2989.93	0.001893
2999.57	0.002053
3009.22	0.002273
3018.86	0.002633
3028.51	0.002133
3038.15	0.001643
3047.8	0.001243
3057.44	0.0010496
3067.09	0.0008766
3076.73	0.001123
3086.38	0.001573
3096.02	0.001353
3105.67	0.0006057
3115.31	0.0005837
3124.95	0.0003473
3134.6	0.0003022
3144.24	0.0003038
3153.89	0.00012716
3163.53	0.0002399
3173.18	0.00011753
3182.82	0.0002478
3192.47	0.0002865
3202.11	0.0002848
3211.76	0.0002997
3221.4	0.0003021
3231.05	0.0002866
3240.69	0.0003445
3250.34	0.0002449
3259.98	0.0004519
3269.63	0.000322
3279.27	0.0003193
3288.92	0.00015035
3298.56	0.000208
3308.21	0.0003004
3317.85	9.61e-05
3327.49	6.79e-05
3337.14	0.0002538
3346.78	0.00022
3356.43	0.000107999
3366.07	0.0003798
3375.72	0.0003422
3385.36	0.0003821
3395.01	0.0002775
3404.65	0.0002254
3414.3	0.0004947
3423.94	0.0003973
3433.59	0.00018012
3443.23	0.0002325
3452.88	0.0002253
3462.52	0.0003472
3472.17	0.0002332
3481.81	0.0007279
3491.46	0.0009725
3501.1	0.0009974
3510.75	0.0006241
3520.39	0.0004702
3530.04	0.0004375
3539.68	0.0005564
3549.32	0.0005399
3558.97	0.0008759
3568.61	0.003073
3578.26	0.016393
3587.9	0.022903
3597.55	0.006373
3607.19	0.001163
3616.84	0.0005767
3626.48	0.000499
3636.13	0.0005298
3645.77	0.000399
3655.42	0.0005121
3665.06	0.0003889
3674.71	0.000416
3684.35	0.0004114
3694	0.0002151
3703.64	0.0003024
3713.29	0.0004523
3722.93	0.0003099
3732.58	0.0004261
3742.22	0.0004609
3751.86	0.0002115
3761.51	0.0002638
3771.15	0.0002579
3780.8	8.84e-05
3790.44	0.0003135
3800.09	0.0002895
3809.73	0.0004011
3819.38	0.0003933
3829.02	0.0004108
3838.67	0.000394
3848.31	0.0003079
3857.96	0.0004011
3867.6	0.0002528
3877.25	0.0002308
3886.89	0.000287
3896.54	0.00017732
3906.18	0.0002315
3915.83	0.0003429
3925.47	0.0002672
3935.12	0.0003181
3944.76	0.0004449
3954.41	0.0004509
3964.05	0
3973.69	0.0005115
3983.34	0.0004305
3992.98	0.0004781
