Infrared Spectrum: Salicaldoxime
Formula: C 7 H 7 N O 2
CAS: 94-67-7
State: gas
Origin: EPA-IR VAPOR PHASE LIBRARY
1/CM	ABSORBANCE
549.8	0.02146
559.445	0.02687
569.09	0.02677
578.734	0.02072
588.379	0.01959
598.024	0.02263
607.669	0.03152
617.313	0.04348
626.958	0.05351
636.603	0.06639
646.248	0.08395
655.893	0.06674
665.537	0.02028
675.182	0.01356
684.827	0.01306
694.472	0.01176
704.116	0.00852
713.761	0.00784
723.406	0.01226
733.051	0.03262
742.695	0.06095
752.34	0.10373
761.985	0.05261
771.63	0.02641
781.275	0.02762
790.919	0.02689
800.564	0.01478
810.209	0.00859
819.854	0.0062
829.498	0.00557
839.143	0.00678
848.788	0.00792
858.433	0.00857
868.078	0.01112
877.722	0.01922
887.367	0.05623
897.012	0.09867
906.657	0.07597
916.301	0.01397
925.946	0.00937
935.591	0.01715
945.236	0.03721
954.88	0.07817
964.525	0.11824
974.17	0.10424
983.815	0.03536
993.46	0.0079
1003.1	0.00604
1012.75	0.00624
1022.39	0.00784
1032.04	0.00843
1041.68	0.00874
1051.33	0.0058
1060.97	0.00595
1070.62	0.00649
1080.26	0.00791
1089.91	0.00899
1099.55	0.00921
1109.2	0.00943
1118.84	0.0082
1128.49	0.00803
1138.13	0.01376
1147.78	0.02796
1157.42	0.0292
1167.07	0.02285
1176.71	0.03485
1186.36	0.05046
1196	0.04849
1205.64	0.03248
1215.29	0.02706
1224.93	0.02899
1234.58	0.03461
1244.22	0.05655
1253.87	0.12769
1263.51	0.21153
1273.16	0.176
1282.8	0.08239
1292.45	0.0441
1302.09	0.03746
1311.74	0.03205
1321.38	0.01651
1331.03	0.00765
1340.67	0.00773
1350.32	0.01072
1359.96	0.01598
1369.61	0.02494
1379.25	0.042
1388.9	0.0589
1398.54	0.05874
1408.18	0.03991
1417.83	0.02502
1427.47	0.01707
1437.12	0.01284
1446.76	0.01457
1456.41	0.02617
1466.05	0.04415
1475.7	0.06668
1485.34	0.08495
1494.99	0.07557
1504.63	0.03284
1514.28	0.01473
1523.92	0.01012
1533.57	0.0067
1543.21	0.00699
1552.86	0.01335
1562.5	0.02707
1572.15	0.03786
1581.79	0.03647
1591.44	0.02692
1601.08	0.02984
1610.73	0.06747
1620.37	0.09228
1630.01	0.05389
1639.66	0.01351
1649.3	0.00531
1658.95	0.00375
1668.59	0.00428
1678.24	0.0046
1687.88	0.00373
1697.53	0.00337
1707.17	0.00336
1716.82	0.00253
1726.46	0.00151
1736.11	0.00144
1745.75	0.00172
1755.4	0.00192
1765.04	0.00248
1774.69	0.00348
1784.33	0.00363
1793.98	0.00286
1803.62	0.00223
1813.27	0.00261
1822.91	0.00263
1832.55	0.00194
1842.2	0.00194
1851.84	0.00279
1861.49	0.00327
1871.13	0.00273
1880.78	0.00272
1890.42	0.0039
1900.07	0.00479
1909.71	0.00453
1919.36	0.0047
1929	0.00633
1938.65	0.0056
1948.29	0.00256
1957.94	0.00106
1967.58	0.00102
1977.23	0.0009605
1986.87	0.0009301
1996.52	0.0007376
2006.16	0.0006982
2015.81	0.0008938
2025.45	0.0009578
2035.1	0.00112
2044.74	0.00125
2054.38	0.00132
2064.03	0.0012
2073.67	0.0009295
2083.32	0.0009445
2092.96	0.0008718
2102.61	0.0007773
2112.25	0.0006158
2121.9	0.0004643
2131.54	0.0003921
2141.19	0.0005052
2150.83	0.0006785
2160.48	0.0007956
2170.12	0.0008671
2179.77	0.000812
2189.41	0.0006816
2199.06	0.0006647
2208.7	0.0007925
2218.35	0.0009734
2227.99	0.00126
2237.64	0.00134
2247.28	0.00119
2256.92	0.00134
2266.57	0.00153
2276.21	0.00131
2285.86	0.000981
2295.5	0.00109
2305.15	0.0011
2314.79	0.00121
2324.44	0.00115
2334.08	0.00145
2343.73	0.00153
2353.37	0.00162
2363.02	0.00154
2372.66	0.00169
2382.31	0.00157
2391.95	0.00147
2401.6	0.00153
2411.24	0.00134
2420.89	0.00101
2430.53	0.0008269
2440.18	0.0007331
2449.82	0.0009631
2459.47	0.00117
2469.11	0.0013
2478.75	0.00134
2488.4	0.00153
2498.04	0.00206
2507.69	0.00262
2517.33	0.00311
2526.98	0.00336
2536.62	0.00315
2546.27	0.00276
2555.91	0.0025
2565.56	0.00292
2575.2	0.00336
2584.85	0.00336
2594.49	0.0028
2604.14	0.00242
2613.78	0.00243
2623.43	0.00279
2633.07	0.00317
2642.72	0.00358
2652.36	0.00365
2662.01	0.00332
2671.65	0.00316
2681.29	0.00273
2690.94	0.00223
2700.58	0.00218
2710.23	0.00225
2719.87	0.00256
2729.52	0.00305
2739.16	0.00316
2748.81	0.00328
2758.45	0.0036
2768.1	0.00358
2777.74	0.00343
2787.39	0.00314
2797.03	0.00293
2806.68	0.00305
2816.32	0.00303
2825.97	0.00316
2835.61	0.00313
2845.26	0.00335
2854.9	0.00341
2864.55	0.00346
2874.19	0.00392
2883.84	0.00402
2893.48	0.00413
2903.12	0.00404
2912.77	0.00427
2922.41	0.00475
2932.06	0.00517
2941.7	0.00558
2951.35	0.00727
2960.99	0.01053
2970.64	0.01174
2980.28	0.00921
2989.93	0.00691
2999.57	0.00669
3009.22	0.00758
3018.86	0.01012
3028.51	0.01386
3038.15	0.01825
3047.8	0.02263
3057.44	0.02646
3067.09	0.03171
3076.73	0.031
3086.38	0.02424
3096.02	0.02208
3105.67	0.02052
3115.31	0.01646
3124.95	0.01285
3134.6	0.01023
3144.24	0.00916
3153.89	0.0082
3163.53	0.00797
3173.18	0.00788
3182.82	0.00824
3192.47	0.00875
3202.11	0.00896
3211.76	0.00961
3221.4	0.01136
3231.05	0.01409
3240.69	0.01783
3250.34	0.02279
3259.98	0.03051
3269.63	0.04067
3279.27	0.0484
3288.92	0.05031
3298.56	0.04666
3308.21	0.04058
3317.85	0.03453
3327.49	0.03009
3337.14	0.0283
3346.78	0.02773
3356.43	0.02721
3366.07	0.0252
3375.72	0.0232
3385.36	0.021
3395.01	0.01959
3404.65	0.01853
3414.3	0.01791
3423.94	0.01768
3433.59	0.01737
3443.23	0.01677
3452.88	0.01544
3462.52	0.01353
3472.17	0.01172
3481.81	0.00981
3491.46	0.00816
3501.1	0.00706
3510.75	0.00604
3520.39	0.00543
3530.04	0.00478
3539.68	0.00436
3549.32	0.00382
3558.97	0.00338
3568.61	0.00316
3578.26	0.00335
3587.9	0.0043
3597.55	0.00642
3607.19	0.01278
3616.84	0.02936
3626.48	0.07018
3636.13	0.14
3645.77	0.11197
3655.42	0.03097
3665.06	0.00629
3674.71	0.00288
3684.35	0.00145
3694	0.00127
3703.64	0.0009478
3713.29	0.0011
3722.93	0.00116
3732.58	0.00133
3742.22	0.0009439
3751.86	0.00101
3761.51	0.0008803
3771.15	0.0008122
3780.8	0.0007853
3790.44	0.00122
3800.09	0.000938
3809.73	0.0009044
3819.38	0.0008072
3829.02	0.000719
3838.67	0.0006511
3848.31	0.000446
3857.96	0.0005479
3867.6	0.0002158
3877.25	0.0004553
3886.89	0.0007264
3896.54	0.000452
3906.18	0.0007673
3915.83	0.00101
3925.47	0.00114
3935.12	0.00138
3944.76	0.00193
3954.41	0.0018
3964.05	0.00177
3973.69	0.00155
3983.34	0.00142
3992.98	0.00125
