Infrared Spectrum: 2-Allylcyclohexanone
Formula: C 9 H 14 O
CAS: 94-66-6
State: gas
Origin: EPA-IR VAPOR PHASE LIBRARY
1/CM	ABSORBANCE
549.8	0.002499
559.445	0.003499
569.09	0.003389
578.734	0.002449
588.379	0.001589
598.024	0.001399
607.669	0.001969
617.313	0.002709
626.958	0.003359
636.603	0.003379
646.248	0.002659
655.893	0.002549
665.537	0.002199
675.182	0.001919
684.827	0.001689
694.472	0.001599
704.116	0.001419
713.761	0.001529
723.406	0.001389
733.051	0.001469
742.695	0.001379
752.34	0.001609
761.985	0.001309
771.63	0.0010645
781.275	0.0007812
790.919	0.001509
800.564	0.001849
810.209	0.002609
819.854	0.003109
829.498	0.003019
839.143	0.002579
848.788	0.002729
858.433	0.003109
868.078	0.003409
877.722	0.004199
887.367	0.005059
897.012	0.007629
906.657	0.014959
916.301	0.019899
925.946	0.014829
935.591	0.008539
945.236	0.006089
954.88	0.005629
964.525	0.005419
974.17	0.005219
983.815	0.007249
993.46	0.009609
1003.1	0.007989
1012.75	0.005509
1022.39	0.004769
1032.04	0.004469
1041.68	0.005149
1051.33	0.007099
1060.97	0.008429
1070.62	0.007229
1080.26	0.005089
1089.91	0.004439
1099.55	0.005169
1109.2	0.009229
1118.84	0.015409
1128.49	0.015159
1138.13	0.009199
1147.78	0.005179
1157.42	0.003809
1167.07	0.002399
1176.71	0.002299
1186.36	0.004059
1196	0.005779
1205.64	0.005829
1215.29	0.005939
1224.93	0.007019
1234.58	0.006189
1244.22	0.005329
1253.87	0.004429
1263.51	0.003729
1273.16	0.003399
1282.8	0.003129
1292.45	0.003589
1302.09	0.005259
1311.74	0.006969
1321.38	0.006839
1331.03	0.006169
1340.67	0.006359
1350.32	0.006249
1359.96	0.005479
1369.61	0.003859
1379.25	0.002649
1388.9	0.002279
1398.54	0.002579
1408.18	0.003869
1417.83	0.006309
1427.47	0.010019
1437.12	0.012809
1446.76	0.014459
1456.41	0.012629
1466.05	0.007659
1475.7	0.003949
1485.34	0.002039
1494.99	0.001369
1504.63	0.001133
1514.28	0.0009825
1523.92	0.0009018
1533.57	0.0009755
1543.21	0.0009923
1552.86	0.0010857
1562.5	0.0010384
1572.15	0.0010038
1581.79	0.0009337
1591.44	0.0010322
1601.08	0.001269
1610.73	0.001899
1620.37	0.003109
1630.01	0.006479
1639.66	0.009279
1649.3	0.007349
1658.95	0.003719
1668.59	0.003499
1678.24	0.004399
1687.88	0.006319
1697.53	0.011089
1707.17	0.026899
1716.82	0.062989
1726.46	0.087899
1736.11	0.067849
1745.75	0.026259
1755.4	0.009779
1765.04	0.005419
1774.69	0.003829
1784.33	0.002869
1793.98	0.002429
1803.62	0.001959
1813.27	0.001939
1822.91	0.002319
1832.55	0.002739
1842.2	0.002369
1851.84	0.001479
1861.49	0.001134
1871.13	0.0008576
1880.78	0.0008517
1890.42	0.0007188
1900.07	0.0007471
1909.71	0.0005806
1919.36	0.0005456
1929	0.0005712
1938.65	0.000588
1948.29	0.0005507
1957.94	0.0006018
1967.58	0.000678
1977.23	0.000726
1986.87	0.0006937
1996.52	0.0005192
2006.16	0.0004603
2015.81	0.0004462
2025.45	0.0004761
2035.1	0.0003918
2044.74	0.0004601
2054.38	0.0004893
2064.03	0.0004012
2073.67	0.0004134
2083.32	0.0004427
2092.96	0.0004031
2102.61	0.0004457
2112.25	0.0004646
2121.9	0.0004957
2131.54	0.0004152
2141.19	0.0005011
2150.83	0.0004262
2160.48	0.0004401
2170.12	0.0004475
2179.77	0.000572
2189.41	0.0005518
2199.06	0.0005838
2208.7	0.0004957
2218.35	0.0004491
2227.99	0.0004216
2237.64	0.0004352
2247.28	0.0005035
2256.92	0.0004793
2266.57	0.0004501
2276.21	0.0004486
2285.86	0.0004858
2295.5	0.0004468
2305.15	0.0005144
2314.79	0.0004654
2324.44	0.0004086
2334.08	0.0003228
2343.73	0.0004204
2353.37	0.0005524
2363.02	0.0005447
2372.66	0.0004003
2382.31	0.0004846
2391.95	0.0004703
2401.6	0.0005268
2411.24	0.0004533
2420.89	0.0003996
2430.53	0.0004468
2440.18	0.0004294
2449.82	0.0003433
2459.47	0.0003446
2469.11	0.0003341
2478.75	0.0003948
2488.4	0.0004011
2498.04	0.0003521
2507.69	0.0004274
2517.33	0.0003117
2526.98	0.000412
2536.62	0.0003661
2546.27	0.0005037
2555.91	0.0005136
2565.56	0.0005107
2575.2	0.000481
2584.85	0.000584
2594.49	0.0005802
2604.14	0.000549
2613.78	0.0005068
2623.43	0.000614
2633.07	0.0006963
2642.72	0.0006502
2652.36	0.0008582
2662.01	0.0011162
2671.65	0.0011734
2681.29	0.0008882
2690.94	0.000815
2700.58	0.000655
2710.23	0.000603
2719.87	0.000653
2729.52	0.000608
2739.16	0.0007805
2748.81	0.0007178
2758.45	0.0009483
2768.1	0.0011137
2777.74	0.001359
2787.39	0.001579
2797.03	0.001869
2806.68	0.001989
2816.32	0.002409
2825.97	0.003339
2835.61	0.005089
2845.26	0.008649
2854.9	0.016959
2864.55	0.029839
2874.19	0.033499
2883.84	0.023779
2893.48	0.016769
2903.12	0.019199
2912.77	0.026519
2922.41	0.040549
2932.06	0.067569
2941.7	0.094629
2951.35	0.074609
2960.99	0.040479
2970.64	0.024709
2980.28	0.018929
2989.93	0.012379
2999.57	0.009479
3009.22	0.007609
3018.86	0.005909
3028.51	0.003959
3038.15	0.003179
3047.8	0.003139
3057.44	0.004049
3067.09	0.005829
3076.73	0.010029
3086.38	0.012039
3096.02	0.007499
3105.67	0.002679
3115.31	0.001439
3124.95	0.001011
3134.6	0.0008623
3144.24	0.0008054
3153.89	0.000604
3163.53	0.0005839
3173.18	0.000444
3182.82	0.0005007
3192.47	0.0004789
3202.11	0.000459
3211.76	0.0004006
3221.4	0.0004308
3231.05	0.0005046
3240.69	0.0004329
3250.34	0.0004047
3259.98	0.0005302
3269.63	0.0004302
3279.27	0.0004162
3288.92	0.0003215
3298.56	0.000169
3308.21	0.00020674
3317.85	0.00026626
3327.49	0.0003614
3337.14	0.000441
3346.78	0.00026705
3356.43	0.0003438
3366.07	0.00022899
3375.72	0.0003695
3385.36	0.00024903
3395.01	0.0004168
3404.65	0.0006532
3414.3	0.0008598
3423.94	0.001589
3433.59	0.001709
3443.23	0.001659
3452.88	0.0009437
3462.52	0.0007869
3472.17	0.0004201
3481.81	0.000331
3491.46	0.0004317
3501.1	0.0004131
3510.75	0.00024988
3520.39	0.0003571
3530.04	0.00027516
3539.68	0.00023366
3549.32	0.0003255
3558.97	0.000311
3568.61	0.0002983
3578.26	0.0001269
3587.9	0.0001018
3597.55	0.0004285
3607.19	0.0003599
3616.84	0.00028496
3626.48	0.00021949
3636.13	0.00022027
3645.77	0.0003535
3655.42	0.0003588
3665.06	0.00025658
3674.71	0.0003266
3684.35	0.00025083
3694	0.00021122
3703.64	0.0002143
3713.29	0.000373
3722.93	0.00023002
3732.58	0.0004288
3742.22	0.000509
3751.86	0.0004894
3761.51	0.0004368
3771.15	0.0003925
3780.8	0.0005878
3790.44	0.0004409
3800.09	0.0003756
3809.73	0.0004633
3819.38	0.0004819
3829.02	0.000477
3838.67	0.0002997
3848.31	0.0004895
3857.96	0.0003259
3867.6	0.0002998
3877.25	0.0003868
3886.89	0.0006516
3896.54	0.0003409
3906.18	0.000429
3915.83	0.0004395
3925.47	0.0005251
3935.12	0.0006
3944.76	0.0003378
3954.41	0.0005788
3964.05	0.0004319
3973.69	0.0005182
3983.34	0.0003679
3992.98	0.0007022
