Infrared Spectrum: 1,4-BIS-(2-HYDROXYPROPYL)-2-METHYLPIPERAZINE
Formula: C11 H24 N2 O2
CAS: 94-72-4
State: LIQUID
Boiling point: 145 C AT 3 mmHg
Class: COBLENTZ III
Instrument: BAIRD (GRATING)
Instrument parameters: NaCl PRISM
Path length: CAPILLARY
Resolution: 2
Origin: WYANDOTTE CHEMICALS CORP.
1/CM	TRANSMITTANCE
627	0.7073
636	0.7088
645	0.7095
654	0.7204
663	0.7144
672	0.7365
681	0.7515
690	0.7652
699	0.7782
708	0.7956
717	0.7996
726	0.812
735	0.8201
744	0.8158
753	0.8233
762	0.8138
771	0.7685
780	0.753
789	0.8326
798	0.8265
807	0.8044
816	0.7282
825	0.6054
834	0.4647
843	0.3609
852	0.5531
861	0.7546
870	0.7594
879	0.6968
888	0.7129
897	0.7428
906	0.7107
915	0.6591
924	0.52
933	0.4336
942	0.4601
951	0.5506
960	0.6064
969	0.7262
978	0.7599
987	0.731
996	0.6466
1005	0.5786
1014	0.7142
1023	0.6834
1032	0.6206
1041	0.3942
1050	0.2535
1059	0.2581
1068	0.2272
1077	0.26
1086	0.2631
1095	0.2863
1104	0.3326
1113	0.3621
1122	0.3603
1131	0.3166
1140	0.322
1149	0.3323
1158	0.2416
1167	0.2921
1176	0.3813
1185	0.6088
1194	0.6561
1203	0.6861
1212	0.7522
1221	0.7102
1230	0.6015
1239	0.6333
1248	0.5411
1257	0.4335
1266	0.4119
1275	0.377
1284	0.3386
1293	0.3137
1302	0.3311
1311	0.3199
1320	0.319
1329	0.3039
1338	0.3052
1347	0.3737
1356	0.4662
1365	0.4611
1374	0.3633
1383	0.2814
1392	0.3922
1401	0.5256
1410	0.4843
1419	0.3939
1428	0.4514
1437	0.5238
1446	0.5012
1455	0.4067
1464	0.3513
1473	0.3295
1482	0.4299
1491	0.6416
1500	0.7894
1509	0.8464
1518	0.876
1527	0.8982
1536	0.9095
1545	0.9188
1554	0.9186
1563	0.9183
1572	0.9294
1581	0.9248
1590	0.9328
1599	0.9348
1608	0.9317
1617	0.9261
1626	0.9229
1635	0.9215
1644	0.9237
1653	0.9235
1662	0.9167
1671	0.9132
1680	0.9311
1689	0.9417
1698	0.949
1707	0.9547
1716	0.9616
1725	0.9688
1734	0.9743
1743	0.975
1752	0.9774
1761	0.976
1770	0.9699
1779	0.9733
1788	0.9776
1797	0.9814
1806	0.9848
1815	0.9881
1824	0.989
1833	0.9867
1842	0.988
1851	0.9838
1860	0.9846
1869	0.9812
1878	0.9803
1887	0.9845
1896	0.9824
1905	0.9794
1914	0.9761
1923	0.9773
1932	0.9804
1941	0.9825
1950	0.9841
1959	0.986
1968	0.9878
1977	0.9878
1986	0.9812
1995	0.9855
2004	0.989
2013	0.99
2022	0.9872
2031	0.9855
2040	0.987
2049	0.9906
2058	0.9873
2067	0.9855
2076	0.9882
2085	0.9909
2094	0.9913
2103	0.991
2112	0.9859
2121	0.9851
2130	0.985
2139	0.984
2148	0.981
2157	0.9771
2166	0.9742
2175	0.972
2184	0.971
2193	0.9708
2202	0.9708
2211	0.9718
2220	0.9729
2229	0.974
2238	0.9737
2247	0.9708
2256	0.9681
2265	0.9673
2274	0.9689
2283	0.9732
2292	0.9775
2301	0.9756
2310	0.9682
2319	0.9593
2328	0.9507
2337	0.9419
2346	0.9314
2355	0.9243
2364	0.9281
2373	0.9368
2382	0.9434
2391	0.9454
2400	0.9455
2409	0.9445
2418	0.9421
2427	0.9396
2436	0.9374
2445	0.9355
2454	0.9338
2463	0.9305
2472	0.9254
2481	0.9193
2490	0.913
2499	0.9069
2508	0.9009
2517	0.895
2526	0.8892
2535	0.8829
2544	0.8766
2553	0.869
2562	0.8612
2571	0.8542
2580	0.8487
2589	0.8441
2598	0.8355
2607	0.8231
2616	0.8159
2625	0.8084
2634	0.7904
2643	0.7744
2652	0.7588
2661	0.7407
2670	0.7279
2679	0.7145
2688	0.6972
2697	0.6769
2706	0.6547
2715	0.6289
2724	0.6069
2733	0.5786
2742	0.5431
2751	0.4857
2760	0.4319
2769	0.3909
2778	0.3501
2787	0.3097
2796	0.2694
2805	0.2222
2814	0.1763
2823	0.1719
2832	0.1934
2841	0.2466
2850	0.2993
2859	0.3255
2868	0.3255
2877	0.3091
2886	0.2894
2895	0.277
2904	0.2716
2913	0.2714
2922	0.2709
2931	0.2701
2940	0.2573
2949	0.2299
2958	0.2154
2967	0.2203
2976	0.2284
2985	0.1997
2994	0.1669
3003	0.187
3012	0.3064
3021	0.4317
3030	0.5565
3039	0.6761
3048	0.7208
3057	0.7285
3066	0.7281
3075	0.7263
3084	0.7211
3093	0.7121
3102	0.6999
3111	0.6872
3120	0.6743
3129	0.6615
3138	0.6488
3147	0.6362
3156	0.6236
3165	0.6111
3174	0.5987
3183	0.5863
3192	0.574
3201	0.5618
3210	0.5496
3219	0.5376
3228	0.5256
3237	0.5136
3246	0.4993
3255	0.4768
3264	0.4636
3273	0.45
3282	0.4332
3291	0.418
3300	0.4029
3309	0.3776
3318	0.3605
3327	0.3447
3336	0.3291
3345	0.3147
3354	0.3003
3363	0.289
3372	0.2818
3381	0.2745
3390	0.2678
3399	0.2641
3408	0.2626
3417	0.2615
3426	0.2604
3435	0.2606
3444	0.2628
3453	0.2715
3462	0.2831
3471	0.2935
3480	0.3045
3489	0.3213
3498	0.3463
3507	0.3622
3516	0.3739
3525	0.4351
3534	0.4647
3543	0.4941
3552	0.5234
3561	0.5524
3570	0.5815
3579	0.6103
3588	0.641
3597	0.7048
3606	0.7586
3615	0.775
3624	0.7898
3633	0.8035
3642	0.8178
3651	0.8356
3660	0.8521
3669	0.8638
3678	0.8762
3687	0.9007
3696	0.9116
3705	0.9191
3714	0.9238
3723	0.9282
3732	0.9318
3741	0.9352
3750	0.9385
3759	0.9416
3768	0.9441
3777	0.9466
3786	0.949
3795	0.9507
3804	0.9514
3813	0.9514
3822	0.951
3831	0.9497
3840	0.9481
3849	0.9449
3858	0.9413
3867	0.9389
3876	0.9386
3885	0.9387
3894	0.9397
3903	0.9419
3912	0.944
3921	0.9452
3930	0.9452
3939	0.9445
3948	0.9434
3957	0.9421
3966	0.9408
3975	0.9394
3984	0.938
3993	0.9365
