Infrared Spectrum: 2,4-D Acid
Formula: C 8 H 6 Cl 2 O 3
CAS: 94-75-7
State: gas
Instrument: HP-GC/MS/IRD
Origin: NIST Mass Spectrometry Data Center
1/CM	ABSORBANCE
550	0.0011298
562	0.0022827
574	0.0031185
586	0.0027384
598	0.0027195
610	0.0031437
622	0.0025011
634	0.0022071
646	0.0030366
658	0.0025872
670	0.0015855
682	0.0009639
694	0.0009303
706	0.0013335
718	0.0022218
730	0.002541
742	0.0024759
754	0.0027342
766	0.0012411
778	0.000651
790	0.0009996
802	0.0020181
814	0.00189
826	0.0017829
838	0.0024234
850	0.0020811
862	0.001911
874	0.0021189
886	0.0006972
898	0.0001785
910	6.51e-05
922	5.46e-05
934	4.83e-05
946	7.35e-05
958	0.0001071
970	0.0002604
982	0.0003591
994	0.000735
1006	0.0012075
1018	0.0020643
1030	0.0034839
1042	0.0050358
1054	0.0059829
1066	0.0092715
1078	0.0101094
1090	0.0080241
1102	0.0104496
1114	0.0085197
1126	0.0083496
1138	0.0066633
1150	0.0055713
1162	0.0050253
1174	0.0040278
1186	0.0032382
1198	0.0031479
1210	0.0039249
1222	0.00609
1234	0.0075012
1246	0.0079632
1258	0.0080682
1270	0.0073206
1282	0.0078792
1294	0.0056931
1306	0.0032109
1318	0.0030366
1330	0.0038052
1342	0.0038493
1354	0.0033873
1366	0.0031752
1378	0.00294
1390	0.0028413
1402	0.0019005
1414	0.0014112
1426	0.0022008
1438	0.0032865
1450	0.0037002
1462	0.0058485
1474	0.0181608
1486	0.0156723
1498	0.0056301
1510	0.0020223
1522	0.0008064
1534	0.0004368
1546	0.0003213
1558	0.0005166
1570	0.0010437
1582	0.0012558
1594	0.0007497
1606	0.0001659
1618	1.05e-05
1630	8.4e-06
1642	3.36e-05
1654	1.89e-05
1666	6.09e-05
1678	0.0001197
1690	0.0002226
1702	0.0003423
1714	0.0005481
1726	0.0009996
1738	0.00168
1750	0.0026355
1762	0.004263
1774	0.0080808
1786	0.0117579
1798	0.0122619
1810	0.0138831
1822	0.0072492
1834	0.0032613
1846	0.0016821
1858	0.0009177
1870	0.0005208
1882	0.0003507
1894	0.00021
1906	0.0001071
1918	8.19e-05
1930	5.46e-05
1942	7.35e-05
1954	7.56e-05
1966	5.25e-05
1978	6.09e-05
1990	5.04e-05
2002	5.88e-05
2014	7.14e-05
2026	7.77e-05
2038	5.67e-05
2050	4.2e-05
2062	6.72e-05
2074	6.72e-05
2086	7.14e-05
2098	6.51e-05
2110	0.000126
2122	9.66e-05
2134	9.87e-05
2146	7.14e-05
2158	7.35e-05
2170	0.0001008
2182	7.14e-05
2194	8.61e-05
2206	4.83e-05
2218	7.14e-05
2230	0.0001029
2242	5.88e-05
2254	2.1e-05
2266	7.14e-05
2278	3.78e-05
2290	0.0001092
2302	0.0001281
2314	0.0001596
2326	0.0001869
2338	0.0001239
2350	0.0001407
2362	0.000147
2374	0.0001218
2386	7.35e-05
2398	7.98e-05
2410	7.14e-05
2422	6.72e-05
2434	1.26e-05
2446	5.46e-05
2458	6.93e-05
2470	6.72e-05
2482	9.03e-05
2494	0.000105
2506	0.0001428
2518	0.0001197
2530	0.0001575
2542	0.0001155
2554	8.61e-05
2566	0.0001113
2578	6.72e-05
2590	8.19e-05
2602	4.41e-05
2614	7.56e-05
2626	5.25e-05
2638	6.93e-05
2650	3.99e-05
2662	5.04e-05
2674	5.46e-05
2686	5.67e-05
2698	9.24e-05
2710	7.77e-05
2722	7.14e-05
2734	0.0001071
2746	3.78e-05
2758	0.0001344
2770	0.0001491
2782	0.0001155
2794	0.0001302
2806	0.0001596
2818	0.0001386
2830	0.0001764
2842	0.0001701
2854	0.0002604
2866	0.000357
2878	0.000336
2890	0.000252
2902	0.0003339
2914	0.0005922
2926	0.0008946
2938	0.0012327
2950	0.0011802
2962	0.0008694
2974	0.0006531
2986	0.00042
2998	0.0002709
3010	0.0002667
3022	0.0002646
3034	0.0001911
3046	0.0001848
3058	0.0002415
3070	0.00042
3082	0.0003612
3094	0.000273
3106	0.0001785
3118	0.0001512
3130	0.0001134
3142	9.87e-05
3154	9.24e-05
3166	0.0001428
3178	9.66e-05
3190	7.14e-05
3202	0.0001197
3214	0.000189
3226	0.0001092
3238	0.0001134
3250	7.77e-05
3262	0.0001092
3274	4.83e-05
3286	7.56e-05
3298	3.57e-05
3310	0.0001218
3322	0.0002058
3334	0.0001155
3346	0.0001848
3358	0.0001134
3370	9.24e-05
3382	0.0001071
3394	0.0001638
3406	0.0001848
3418	0.000168
3430	0.0001785
3442	0.0002457
3454	0.0002751
3466	0.0003549
3478	0.0003318
3490	0.0004914
3502	0.0010311
3514	0.0019698
3526	0.0025284
3538	0.0018291
3550	0.0014637
3562	0.0025704
3574	0.0068943
3586	0.0037317
3598	0.0011025
3610	0.0005796
3622	0.0005082
3634	0.0003507
3646	0.0001932
3658	0.0001869
3670	0.0001911
3682	0.0001428
3694	0.0002079
3706	0.0002667
3718	0.000189
3730	0.0001722
3742	0.0001806
3754	0.0001071
3766	0.0001533
3778	6.93e-05
3790	0.0001827
3802	0.0001911
3814	0.0001911
3826	0.0001617
3838	0.000147
