Infrared Spectrum: 2,5-Diethoxyaniline
Formula: C 10 H 15 N O 2
CAS: 94-85-9
State: gas
Origin: EPA-IR VAPOR PHASE LIBRARY
1/CM	ABSORBANCE
549.8	0.0110042
559.445	0.0110142
569.09	0.0108342
578.734	0.0112042
588.379	0.0101542
598.024	0.0099542
607.669	0.0105942
617.313	0.0115842
626.958	0.0132942
636.603	0.0128242
646.248	0.0120842
655.893	0.0118242
665.537	0.0110542
675.182	0.0112542
684.827	0.0113242
694.472	0.0122142
704.116	0.0137542
713.761	0.0150142
723.406	0.0156442
733.051	0.0159442
742.695	0.0153142
752.34	0.0152842
761.985	0.0153542
771.63	0.0188442
781.275	0.0200142
790.919	0.0180942
800.564	0.0151742
810.209	0.0135742
819.854	0.0145842
829.498	0.0161142
839.143	0.0192142
848.788	0.0179342
858.433	0.0134542
868.078	0.0118042
877.722	0.0119142
887.367	0.0136642
897.012	0.0165542
906.657	0.0194342
916.301	0.0167442
925.946	0.0127742
935.591	0.0098442
945.236	0.0081942
954.88	0.0091942
964.525	0.0140842
974.17	0.0159942
983.815	0.0104842
993.46	0.0089742
1003.1	0.0114142
1012.75	0.0170642
1022.39	0.0284442
1032.04	0.0505242
1041.68	0.0790242
1051.33	0.0748842
1060.97	0.0447742
1070.62	0.0305242
1080.26	0.0293042
1089.91	0.0350242
1099.55	0.0326342
1109.2	0.0282742
1118.84	0.0280442
1128.49	0.0233242
1138.13	0.0246642
1147.78	0.0270442
1157.42	0.0339442
1167.07	0.0464642
1176.71	0.0748742
1186.36	0.0918342
1196	0.114684
1205.64	0.222564
1215.29	0.268034
1224.93	0.141344
1234.58	0.0553542
1244.22	0.0279542
1253.87	0.0182742
1263.51	0.0162542
1273.16	0.0183342
1282.8	0.0238542
1292.45	0.0276442
1302.09	0.0257342
1311.74	0.0216742
1321.38	0.0161642
1331.03	0.0111342
1340.67	0.0087342
1350.32	0.0084942
1359.96	0.0101042
1369.61	0.0128342
1379.25	0.0200942
1388.9	0.0361442
1398.54	0.0327642
1408.18	0.0158942
1417.83	0.0117642
1427.47	0.0134042
1437.12	0.0182142
1446.76	0.0202042
1456.41	0.0201842
1466.05	0.0232942
1475.7	0.0380942
1485.34	0.0530542
1494.99	0.0756142
1504.63	0.166964
1514.28	0.176874
1523.92	0.0687442
1533.57	0.0269842
1543.21	0.0169842
1552.86	0.0140242
1562.5	0.0130742
1572.15	0.0144142
1581.79	0.0187442
1591.44	0.0278242
1601.08	0.0429442
1610.73	0.0622042
1620.37	0.0698042
1630.01	0.0503342
1639.66	0.0261942
1649.3	0.0144142
1658.95	0.0092042
1668.59	0.0066942
1678.24	0.0056442
1687.88	0.0048442
1697.53	0.0040442
1707.17	0.0036742
1716.82	0.0031442
1726.46	0.0028942
1736.11	0.0026142
1745.75	0.0025042
1755.4	0.0027442
1765.04	0.0026142
1774.69	0.0025842
1784.33	0.0026842
1793.98	0.0029042
1803.62	0.0028842
1813.27	0.0026542
1822.91	0.0025042
1832.55	0.0024842
1842.2	0.0023242
1851.84	0.0022442
1861.49	0.0022042
1871.13	0.0023042
1880.78	0.0025442
1890.42	0.0027542
1900.07	0.0030042
1909.71	0.0033142
1919.36	0.0035542
1929	0.0031042
1938.65	0.0028742
1948.29	0.0026842
1957.94	0.0025442
1967.58	0.0026842
1977.23	0.0025442
1986.87	0.0024342
1996.52	0.0023842
2006.16	0.0023542
2015.81	0.0022542
2025.45	0.0020042
2035.1	0.0020942
2044.74	0.0019142
2054.38	0.0018442
2064.03	0.0019342
2073.67	0.0017042
2083.32	0.0017542
2092.96	0.0015442
2102.61	0.0014742
2112.25	0.0014242
2121.9	0.0013442
2131.54	0.0014042
2141.19	0.0014942
2150.83	0.0014742
2160.48	0.0014042
2170.12	0.0014242
2179.77	0.0014442
2189.41	0.0014242
2199.06	0.0013842
2208.7	0.0013342
2218.35	0.0012142
2227.99	0.0012342
2237.64	0.0013742
2247.28	0.0013042
2256.92	0.0015142
2266.57	0.0017642
2276.21	0.0015542
2285.86	0.0015942
2295.5	0.0013842
2305.15	0.0014642
2314.79	0.0014542
2324.44	0.0016342
2334.08	0.0014742
2343.73	0.0013742
2353.37	0.0013842
2363.02	0.0013042
2372.66	0.0012042
2382.31	0.0013342
2391.95	0.0014342
2401.6	0.0013842
2411.24	0.0017242
2420.89	0.0015242
2430.53	0.0015042
2440.18	0.0014342
2449.82	0.0015842
2459.47	0.0017042
2469.11	0.0017842
2478.75	0.0019442
2488.4	0.0017842
2498.04	0.0015642
2507.69	0.0017442
2517.33	0.0015942
2526.98	0.0013142
2536.62	0.0013142
2546.27	0.0011642
2555.91	0.0012142
2565.56	0.0012242
2575.2	0.0012942
2584.85	0.0011742
2594.49	0.0012142
2604.14	0.0014542
2613.78	0.0018142
2623.43	0.0014342
2633.07	0.0015242
2642.72	0.0012842
2652.36	0.0012142
2662.01	0.0012242
2671.65	0.0012342
2681.29	0.0011242
2690.94	0.0015042
2700.58	0.0015942
2710.23	0.0018442
2719.87	0.0023942
2729.52	0.0026442
2739.16	0.0029042
2748.81	0.0026242
2758.45	0.0026842
2768.1	0.0029242
2777.74	0.0030242
2787.39	0.0032342
2797.03	0.0034142
2806.68	0.0039342
2816.32	0.0044542
2825.97	0.0051442
2835.61	0.0061142
2845.26	0.0078042
2854.9	0.0100342
2864.55	0.0149442
2874.19	0.0224642
2883.84	0.0299842
2893.48	0.0318042
2903.12	0.0327442
2912.77	0.0323942
2922.41	0.0294942
2932.06	0.0337342
2941.7	0.0415742
2951.35	0.0344342
2960.99	0.0312042
2970.64	0.0387642
2980.28	0.0536242
2989.93	0.0518442
2999.57	0.0303342
3009.22	0.0166642
3018.86	0.0119242
3028.51	0.0111542
3038.15	0.0134442
3047.8	0.0128342
3057.44	0.0091842
3067.09	0.0078142
3076.73	0.0069842
3086.38	0.0062342
3096.02	0.0049042
3105.67	0.0041942
3115.31	0.0030542
3124.95	0.0024642
3134.6	0.0017542
3144.24	0.0020042
3153.89	0.0015542
3163.53	0.0016742
3173.18	0.0016742
3182.82	0.0014542
3192.47	0.0016142
3202.11	0.0013042
3211.76	0.0012242
3221.4	0.0010344
3231.05	0.0008424
3240.69	0.0007792
3250.34	0.0006607
3259.98	0.0005681
3269.63	0.0004711
3279.27	0.0006277
3288.92	0.0004283
3298.56	0.0002257
3308.21	0.0003117
3317.85	0.0004782
3327.49	0.0004367
3337.14	0.0004484
3346.78	0.0005884
3356.43	0.0007024
3366.07	0.0008039
3375.72	0.0014642
3385.36	0.0024942
3395.01	0.0058742
3404.65	0.0102742
3414.3	0.0077642
3423.94	0.0031642
3433.59	0.0017342
3443.23	0.0013042
3452.88	0.0012142
3462.52	0.0021842
3472.17	0.0034342
3481.81	0.0057942
3491.46	0.0096942
3501.1	0.0105342
3510.75	0.0069042
3520.39	0.0034442
3530.04	0.0013342
3539.68	0.0010642
3549.32	0.0007573
3558.97	0.0005977
3568.61	0.0003279
3578.26	0.0005296
3587.9	0.0007742
3597.55	0.0001498
3607.19	0.0002277
3616.84	0.0003352
3626.48	0.0004877
3636.13	0.0003294
3645.77	0.0006833
3655.42	0.0003015
3665.06	0.0003751
3674.71	0.0005441
3684.35	0.0006262
3694	0.0005915
3703.64	0.0006108
3713.29	0.0005898
3722.93	0.0007515
3732.58	0.0008154
3742.22	0.0009331
3751.86	0.000661
3761.51	0.0003557
3771.15	0.0004796
3780.8	0.0005138
3790.44	0.0005677
3800.09	0.000523
3809.73	0.000621
3819.38	0.0003627
3829.02	0.0003683
3838.67	0.0006281
3848.31	0.0006
3857.96	0.0006368
3867.6	0.0005111
3877.25	0.0005281
3886.89	0.0004775
3896.54	0.0008789
3906.18	0.0006125
3915.83	0.0006181
3925.47	0.0006217
3935.12	0.0009458
3944.76	0.0012542
3954.41	0.0009892
3964.05	0.0007982
3973.69	0.0007339
3983.34	0.0007416
3992.98	0.0008867
