Infrared Spectrum: 2,4-Dimethylbenzyl amine
Formula: C 9 H 13 N
CAS: 94-98-4
State: gas
Origin: EPA-IR VAPOR PHASE LIBRARY
1/CM	ABSORBANCE
501.5	0.00191
513.074	0.00187
524.648	0.00201
536.222	0.00227
547.796	0.00275
559.37	0.00369
570.944	0.00458
582.518	0.00352
594.092	0.00281
605.666	0.00257
617.24	0.00259
628.814	0.00284
640.388	0.00324
651.962	0.00377
663.536	0.00421
675.11	0.00491
686.684	0.00617
698.258	0.00757
709.832	0.00844
721.406	0.01022
732.98	0.01311
744.554	0.01412
756.128	0.01434
767.702	0.01737
779.276	0.01902
790.85	0.01946
802.423	0.02052
813.997	0.02084
825.571	0.01678
837.145	0.01333
848.719	0.01078
860.293	0.00854
871.867	0.00751
883.441	0.00542
895.015	0.00407
906.589	0.00364
918.163	0.00381
929.737	0.00408
941.311	0.00379
952.885	0.00333
964.459	0.00334
976.033	0.00349
987.607	0.00369
999.181	0.00445
1010.76	0.00603
1022.33	0.00675
1033.9	0.00623
1045.48	0.00547
1057.05	0.00413
1068.63	0.00287
1080.2	0.00207
1091.77	0.00171
1103.35	0.00167
1114.92	0.00148
1126.49	0.00163
1138.07	0.00189
1149.64	0.00223
1161.22	0.00221
1172.79	0.00193
1184.36	0.00161
1195.94	0.00171
1207.51	0.00178
1219.09	0.00191
1230.66	0.00239
1242.23	0.00242
1253.81	0.002
1265.38	0.0018
1276.96	0.00166
1288.53	0.0017
1300.1	0.00186
1311.68	0.00211
1323.25	0.00258
1334.83	0.00336
1346.4	0.00424
1357.97	0.00532
1369.55	0.00685
1381.12	0.00788
1392.7	0.0066
1404.27	0.00512
1415.84	0.00508
1427.42	0.0055
1438.99	0.0062
1450.57	0.00717
1462.14	0.00806
1473.71	0.00828
1485.29	0.00844
1496.86	0.01058
1508.44	0.00998
1520.01	0.00621
1531.58	0.00474
1543.16	0.00438
1554.73	0.00426
1566.31	0.0044
1577.88	0.00473
1589.45	0.00555
1601.03	0.00822
1612.6	0.01171
1624.18	0.00983
1635.75	0.0055
1647.32	0.00322
1658.9	0.00202
1670.47	0.00152
1682.05	0.00132
1693.62	0.00117
1705.19	0.00102
1716.77	0.00106
1728.34	0.00133
1739.92	0.0015
1751.49	0.00134
1763.06	0.0011
1774.64	0.0009043
1786.21	0.0008029
1797.79	0.000788
1809.36	0.000852
1820.93	0.0008202
1832.51	0.0007074
1844.08	0.0006989
1855.66	0.0007307
1867.23	0.000899
1878.8	0.00119
1890.38	0.00115
1901.95	0.0008681
1913.53	0.0006816
1925.1	0.0005857
1936.67	0.0004622
1948.25	0.0003603
1959.82	0.0003035
1971.4	0.0002439
1982.97	0.0002475
1994.54	0.0002665
2006.12	0.0002227
2017.69	0.0002061
2029.27	0.0001979
2040.84	0.0001783
2052.41	0.0001718
2063.99	0.0001957
2075.56	0.0002191
2087.14	0.000229
2098.71	0.0002208
2110.28	0.0002178
2121.86	0.0002035
2133.43	0.0001884
2145.01	0.0001838
2156.58	0.0001785
2168.15	0.0001634
2179.73	0.0001994
2191.3	0.0002161
2202.88	0.0002035
2214.45	0.0002468
2226.02	0.0002451
2237.6	0.0002406
2249.17	0.0002973
2260.74	0.0003023
2272.32	0.0003094
2283.89	0.0002853
2295.47	0.0003135
2307.04	0.0003078
2318.61	0.0003193
2330.19	0.0002887
2341.76	0.0002688
2353.34	0.0002607
2364.91	0.0002465
2376.48	0.0002813
2388.06	0.0002808
2399.63	0.000284
2411.21	0.000338
2422.78	0.0003396
2434.35	0.000316
2445.93	0.0003168
2457.5	0.0003328
2469.08	0.0002973
2480.65	0.000296
2492.22	0.0003095
2503.8	0.0003268
2515.37	0.0003387
2526.95	0.0002903
2538.52	0.0003273
2550.09	0.0003434
2561.67	0.0003011
2573.24	0.0003299
2584.82	0.0003613
2596.39	0.0003813
2607.96	0.0004666
2619.54	0.0004837
2631.11	0.000522
2642.69	0.0005226
2654.26	0.0005202
2665.83	0.0005738
2677.41	0.0006167
2688.98	0.0006737
2700.56	0.0008115
2712.13	0.0009569
2723.7	0.00128
2735.28	0.0019
2746.85	0.0021
2758.43	0.00172
2770	0.00154
2781.57	0.00169
2793.15	0.00191
2804.72	0.00238
2816.3	0.00317
2827.87	0.00449
2839.44	0.00679
2851.02	0.01082
2862.59	0.01661
2874.17	0.02101
2885.74	0.02097
2897.31	0.0197
2908.89	0.02082
2920.46	0.02657
2932.04	0.03127
2943.61	0.0263
2955.18	0.01942
2966.76	0.01588
2978.33	0.01409
2989.91	0.01454
3001.48	0.01814
3013.05	0.02054
3024.63	0.01776
3036.2	0.01465
3047.78	0.01288
3059.35	0.01004
3070.92	0.00714
3082.5	0.00488
3094.07	0.00321
3105.65	0.00242
3117.22	0.00198
3128.79	0.00153
3140.37	0.00103
3151.94	0.0007411
3163.52	0.0006452
3175.09	0.000457
3186.66	0.0004473
3198.24	0.0003407
3209.81	0.0003732
3221.39	0.0003389
3232.96	0.0003745
3244.53	0.0002931
3256.11	0.0002808
3267.68	0.0002604
3279.26	0.0002318
3290.83	0.0002225
3302.4	0.0002749
3313.98	0.0002914
3325.55	0.0004331
3337.13	0.0007078
3348.7	0.00075
3360.27	0.000485
3371.85	0.0003165
3383.42	0.0002174
3395	0.0003192
3406.57	0.000335
3418.14	0.0002874
3429.72	0.0003281
3441.29	0.0002947
3452.86	0.0002094
3464.44	0.0001836
3476.01	0.0002023
3487.59	0.0002196
3499.16	7.224e-05
3510.73	0.0001474
3522.31	0.0001031
3533.88	9.098e-05
3545.46	0.0001366
3557.03	0.000123
3568.6	0.00015
3580.18	0.0001157
3591.75	0.0001709
3603.33	6.451e-05
3614.9	0.0001881
3626.47	6.211e-05
3638.05	9.968e-05
3649.62	8.096e-05
3661.2	7.346e-05
3672.77	0.0001082
3684.34	3.255e-05
3695.92	6.051e-05
3707.49	8.377e-05
3719.07	0.000134
3730.64	0.0001711
3742.21	0.0001923
3753.79	0.0001758
3765.36	0.0001961
3776.94	0.0001548
3788.51	0.000116
3800.08	0.0001635
3811.66	0.0001849
3823.23	0.0001386
3834.81	0.0001488
3846.38	0.0001581
3857.95	0.0002032
3869.53	0.0002009
3881.1	0.0001912
3892.68	0.0002529
3904.25	0.0003083
3915.82	0.000281
3927.4	0.0002462
3938.97	0.0002953
3950.55	0.0002496
3962.12	0.0002995
3973.69	0.0002834
3985.27	0.0002627
3996.84	0.0002082
