Infrared Spectrum: 2-Ethyl-1,3-hexanediol
Formula: C 8 H 18 O 2
CAS: 94-96-2
State: gas
Instrument: HP-GC/MS/IRD
Origin: NIST Mass Spectrometry Data Center
1/CM	ABSORBANCE
550	0.0008895
562	0.000432
574	0.000267
586	0.000294
598	0.0001575
610	0.0001995
622	0.00021
634	0.0001785
646	0.0001305
658	0.0001335
670	0.0001665
682	6.75e-05
694	0.0001035
706	0.000108
718	6e-05
730	0.0001035
742	0.000132
754	0.0002265
766	0.0003705
778	0.0004605
790	0.000297
802	0.000345
814	0.0003945
826	0.0005295
838	0.000612
850	0.0005955
862	0.0005805
874	0.0005805
886	0.0005445
898	0.0006615
910	0.0007245
922	0.0009075
934	0.001014
946	0.001443
958	0.001839
970	0.0022095
982	0.0026085
994	0.003306
1006	0.004467
1018	0.005265
1030	0.0058335
1042	0.005559
1054	0.0042105
1066	0.0033765
1078	0.002823
1090	0.0026985
1102	0.002865
1114	0.0030555
1126	0.0029445
1138	0.00246
1150	0.001878
1162	0.001422
1174	0.0013455
1186	0.001533
1198	0.0018
1210	0.0019725
1222	0.002004
1234	0.001893
1246	0.0019035
1258	0.001908
1270	0.00189
1282	0.0017925
1294	0.0017475
1306	0.00171
1318	0.001578
1330	0.0015105
1342	0.001557
1354	0.0015945
1366	0.001833
1378	0.0024225
1390	0.002595
1402	0.002139
1414	0.001809
1426	0.001434
1438	0.001317
1450	0.001689
1462	0.0023805
1474	0.0022725
1486	0.001311
1498	0.000636
1510	0.000408
1522	0.0003135
1534	0.000261
1546	0.000207
1558	0.000174
1570	0.000165
1582	0.0001395
1594	0.0001155
1606	0.0001185
1618	8.7e-05
1630	0.0001155
1642	0.0001095
1654	8.7e-05
1666	0.000105
1678	7.95e-05
1690	8.7e-05
1702	7.5e-05
1714	7.5e-05
1726	5.4e-05
1738	1.65e-05
1750	6e-06
1762	5.7e-05
1774	6.15e-05
1786	4.8e-05
1798	8.4e-05
1810	6e-05
1822	3.3e-05
1834	6.15e-05
1846	6.75e-05
1858	4.5e-05
1870	7.2e-05
1882	5.7e-05
1894	5.55e-05
1906	7.2e-05
1918	8.55e-05
1930	8.25e-05
1942	6.45e-05
1954	7.8e-05
1966	7.05e-05
1978	6.45e-05
1990	7.05e-05
2002	6.75e-05
2014	8.7e-05
2026	6.45e-05
2038	7.05e-05
2050	8.1e-05
2062	7.2e-05
2074	5.55e-05
2086	6.75e-05
2098	6.45e-05
2110	2.85e-05
2122	3e-05
2134	4.65e-05
2146	1.2e-05
2158	1.65e-05
2170	1.05e-05
2182	2.7e-05
2194	2.85e-05
2206	3.45e-05
2218	2.4e-05
2230	2.7e-05
2242	9e-06
2254	3.3e-05
2266	1.65e-05
2278	1.95e-05
2290	5.7e-05
2302	3.75e-05
2314	5.25e-05
2326	3.45e-05
2338	3.9e-05
2350	1.35e-05
2362	1.95e-05
2374	3.15e-05
2386	5.55e-05
2398	6.6e-05
2410	6.9e-05
2422	6.6e-05
2434	5.1e-05
2446	3.45e-05
2458	5.1e-05
2470	3e-05
2482	4.95e-05
2494	3e-05
2506	4.05e-05
2518	5.1e-05
2530	2.4e-05
2542	5.55e-05
2554	4.8e-05
2566	6.6e-05
2578	8.4e-05
2590	8.7e-05
2602	0.000105
2614	0.000117
2626	0.000138
2638	0.0001305
2650	0.0001905
2662	0.0001995
2674	0.0002235
2686	0.0002655
2698	0.0002775
2710	0.000282
2722	0.000372
2734	0.000456
2746	0.000552
2758	0.00057
2770	0.0006225
2782	0.00066
2794	0.000783
2806	0.0009375
2818	0.001137
2830	0.001491
2842	0.0022095
2854	0.003453
2866	0.0055905
2878	0.009048
2890	0.01038
2902	0.0088515
2914	0.009396
2926	0.0117975
2938	0.0137685
2950	0.0126915
2962	0.014082
2974	0.0136125
2986	0.0060375
2998	0.0026175
3010	0.0015255
3022	0.0010035
3034	0.0008115
3046	0.0005925
3058	0.0004965
3070	0.0003825
3082	0.000327
3094	0.000339
3106	0.000285
3118	0.0002625
3130	0.0002385
3142	0.0001515
3154	0.0001425
3166	0.0001485
3178	0.000123
3190	0.000123
3202	9e-05
3214	5.25e-05
3226	8.1e-05
3238	2.55e-05
3250	6.6e-05
3262	2.25e-05
3274	5.7e-05
3286	8.7e-05
3298	4.35e-05
3310	5.85e-05
3322	0.000102
3334	0.0001095
3346	8.85e-05
3358	0.000129
3370	0.000114
3382	5.7e-05
3394	0.0001095
3406	0.000129
3418	0.000114
3430	7.95e-05
3442	0.0001785
3454	0.0002205
3466	0.0001995
3478	0.0001695
3490	0.0002415
3502	0.0002205
3514	0.0002805
3526	0.000285
3538	0.000261
3550	0.000381
3562	0.0004305
3574	0.0009315
3586	0.001749
3598	0.0020895
3610	0.001497
3622	0.0010575
3634	0.0009945
3646	0.001335
3658	0.0020385
3670	0.002016
3682	0.0011925
3694	0.0005655
3706	0.0003975
3718	0.0003285
3730	0.000315
3742	0.000276
3754	0.000276
3766	0.000267
3778	0.000258
3790	0.0002655
3802	0.0002385
3814	0.000219
3826	0.0002595
3838	0.0001815
