Infrared Spectrum: Alpha,Alpha'-(ETHYLENE DINITRILO)-DI-o-CRESOL
Formula: C16 H16 N2 O2
CAS: 94-93-9
State: SOLID (MINERAL OIL MULL)
Melting point: 126-127 C
Class: COBLENTZ
Instrument: Not specified, most likely a prism, grating, or hybrid spectrometer.
Sampling: TRANSMISSION
Resolution: 4
Origin: DOW CHEMICAL COMPANY
MICROMETERS	TRANSMITTANCE
2.041	0.602
2.08216	0.609
2.12331	0.624
2.16447	0.636
2.20563	0.645
2.24678	0.648
2.28794	0.648
2.32909	0.651
2.37025	0.668
2.41141	0.677
2.45256	0.691
2.49372	0.696
2.53488	0.703
2.57603	0.72
2.61719	0.733
2.65835	0.74
2.6995	0.749
2.74066	0.757
2.78181	0.761
2.82297	0.769
2.86413	0.774
2.90528	0.774
2.94644	0.776
2.9876	0.779
3.02875	0.774
3.06991	0.767
3.11107	0.757
3.15222	0.738
3.19338	0.709
3.23454	0.655
3.27569	0.588
3.31685	0.527
3.358	0.216
3.39916	0.051
3.44032	0.124
3.48147	0.221
3.52263	0.53
3.56379	0.578
3.60494	0.58
3.6461	0.559
3.68726	0.578
3.72841	0.568
3.76957	0.547
3.81072	0.549
3.85188	0.559
3.89304	0.578
3.93419	0.59
3.97535	0.614
4.01651	0.646
4.05766	0.668
4.09882	0.682
4.13998	0.686
4.18113	0.701
4.22229	0.723
4.26344	0.749
4.3046	0.778
4.34576	0.786
4.38691	0.79
4.42807	0.798
4.46923	0.817
4.51038	0.827
4.55154	0.829
4.5927	0.831
4.63385	0.837
4.67501	0.841
4.71616	0.851
4.75732	0.853
4.79848	0.858
4.83963	0.866
4.88079	0.877
4.92195	0.882
4.9631	0.882
5.00426	0.882
5.04542	0.885
5.08657	0.889
5.12773	0.866
5.16888	0.883
5.21004	0.887
5.2512	0.885
5.29235	0.892
5.33351	0.892
5.37467	0.899
5.41582	0.901
5.45698	0.895
5.49814	0.887
5.53929	0.87
5.58045	0.887
5.62161	0.902
5.66276	0.909
5.70392	0.912
5.74507	0.912
5.78623	0.889
5.82739	0.878
5.86854	0.868
5.9097	0.844
5.95086	0.781
5.99201	0.773
6.03317	0.745
6.07433	0.421
6.11548	0.141
6.15664	0.283
6.19779	0.278
6.23895	0.406
6.28011	0.354
6.32126	0.215
6.36242	0.513
6.40358	0.713
6.44473	0.778
6.48589	0.779
6.52705	0.747
6.5682	0.742
6.60936	0.605
6.65051	0.237
6.69167	0.343
6.73283	0.587
6.77398	0.443
6.81514	0.201
6.8563	0.238
6.89745	0.481
6.93861	0.561
6.97977	0.484
7.02092	0.339
7.06208	0.389
7.10323	0.472
7.14439	0.575
7.18555	0.609
7.2267	0.482
7.26786	0.399
7.30902	0.665
7.35017	0.786
7.39133	0.807
7.43249	0.824
7.47364	0.837
7.5148	0.798
7.55595	0.696
7.59711	0.68
7.63827	0.672
7.67942	0.496
7.72058	0.372
7.76174	0.208
7.80289	0.433
7.84405	0.742
7.88521	0.786
7.92636	0.791
7.96752	0.675
8.00868	0.648
8.04983	0.767
8.09099	0.749
8.13214	0.636
8.1733	0.529
8.21446	0.588
8.25561	0.612
8.29677	0.494
8.33793	0.59
8.37908	0.802
8.42024	0.866
8.4614	0.877
8.50255	0.882
8.54371	0.877
8.58486	0.853
8.62602	0.738
8.66718	0.421
8.70833	0.534
8.74949	0.856
8.79065	0.883
8.8318	0.892
8.87296	0.883
8.91412	0.781
8.95527	0.624
8.99643	0.612
9.03758	0.68
9.07874	0.795
9.1199	0.872
9.16105	0.894
9.20221	0.897
9.24337	0.901
9.28452	0.904
9.32568	0.906
9.36684	0.904
9.40799	0.89
9.44915	0.865
9.4903	0.788
9.53146	0.592
9.57262	0.295
9.61377	0.414
9.65493	0.766
9.69609	0.769
9.73724	0.587
9.7784	0.279
9.81956	0.438
9.86071	0.701
9.90187	0.786
9.94302	0.825
9.98418	0.846
10.0253	0.851
10.0665	0.851
10.1077	0.795
10.1488	0.675
10.19	0.51
10.2311	0.546
10.2723	0.551
10.3134	0.668
10.3546	0.836
10.3957	0.868
10.4369	0.887
10.4781	0.885
10.5192	0.883
10.5604	0.877
10.6015	0.863
10.6427	0.773
10.6838	0.715
10.725	0.827
10.7662	0.851
10.8073	0.851
10.8485	0.851
10.8896	0.848
10.9308	0.837
10.9719	0.829
11.0131	0.803
11.0542	0.737
11.0954	0.607
11.1366	0.593
11.1777	0.687
11.2189	0.704
11.26	0.711
11.3012	0.711
11.3423	0.696
11.3835	0.663
11.4247	0.622
11.4658	0.6
11.507	0.558
11.5481	0.421
11.5893	0.278
11.6304	0.201
11.6716	0.192
11.7127	0.237
11.7539	0.324
11.7951	0.433
11.8362	0.534
11.8774	0.614
11.9185	0.663
11.9597	0.699
12.0008	0.728
12.042	0.757
12.0832	0.771
12.1243	0.79
12.1655	0.8
12.2066	0.807
12.2478	0.808
12.2889	0.81
12.3301	0.802
12.3713	0.807
12.4124	0.841
12.4536	0.848
12.4947	0.856
12.5359	0.854
12.577	0.854
12.6182	0.851
12.6593	0.822
12.7005	0.786
12.7417	0.742
12.7828	0.672
12.824	0.547
12.8651	0.438
12.9063	0.356
12.9474	0.433
12.9886	0.6
13.0298	0.679
13.0709	0.679
13.1121	0.581
13.1532	0.418
13.1944	0.247
13.2355	0.194
13.2767	0.184
13.3178	0.104
13.359	0.08
13.4002	0.197
13.4413	0.17
13.4825	0.146
13.5236	0.394
13.5648	0.617
13.6059	0.697
13.6471	0.726
13.6883	0.749
13.7294	0.754
13.7706	0.759
13.8117	0.762
13.8529	0.766
13.894	0.774
13.9352	0.784
13.9764	0.79
14.0175	0.798
14.0587	0.798
14.0998	0.798
14.141	0.798
14.1821	0.798
14.2233	0.796
14.2644	0.788
14.3056	0.788
14.3468	0.784
14.3879	0.781
14.4291	0.774
14.4702	0.766
14.5114	0.761
14.5525	0.755
14.5937	0.745
14.6349	0.74
14.676	0.733
14.7172	0.725
14.7583	0.716
14.7995	0.706
14.8406	0.699
14.8818	0.687
14.9229	0.679
14.9641	0.663
15.0053	0.656
15.0464	0.648
15.0876	0.638
15.1287	0.626
15.1699	0.61
15.211	0.595
15.2522	0.569
15.2934	0.544
15.3345	0.511
15.3757	0.453
15.4168	0.395
15.458	0.372
15.4991	0.368
15.5403	0.389
15.5814	0.428
15.6226	0.448
15.6638	0.457
15.7049	0.462
15.7461	0.462
15.7872	0.462
15.8284	0.462
15.8695	0.46
15.9107	0.46
