Infrared Spectrum: 4-Fluorophenyl trifluoromethyl sulphide
Formula: C 7 H 4 F 4 S
CAS: 940-76-1
State: gas
Origin: EPA-IR VAPOR PHASE LIBRARY
1/CM	ABSORBANCE
549.8	0.0020562
559.445	0.0031
569.09	0.001901
578.734	0.000909
588.379	0.0016329
598.024	0.000862
607.669	0.001038
617.313	0.0018038
626.958	0.0021993
636.603	0.00305
646.248	0.00287
655.893	0.0016106
665.537	0.000885
675.182	0.000457
684.827	0.000859
694.472	0
704.116	0.001031
713.761	0.000684
723.406	0.00058
733.051	0.0011307
742.695	0.0011822
752.34	0.0039
761.985	0.00402
771.63	0.00135
781.275	0.0012135
790.919	0.0016723
800.564	0.00269
810.209	0.00428
819.854	0.0078
829.498	0.01365
839.143	0.01372
848.788	0.00497
858.433	0.00158
868.078	0.000996
877.722	0.000995
887.367	0.0011925
897.012	0.001106
906.657	0.00131028
916.301	0.0016045
925.946	0.0016647
935.591	0.001034
945.236	0.0015924
954.88	0.0015435
964.525	0.000752
974.17	0.0016442
983.815	0.001109
993.46	0.000781
1003.1	0.0021283
1012.75	0.00422
1022.39	0.00267
1032.04	0.0020707
1041.68	0.0021195
1051.33	0.00364
1060.97	0.00421
1070.62	0.00892
1080.26	0.02556
1089.91	0.02922
1099.55	0.01965
1109.2	0.04201
1118.84	0.08295
1128.49	0.107
1138.13	0.08014
1147.78	0.05758
1157.42	0.05338
1167.07	0.06339
1176.71	0.04307
1186.36	0.01535
1196	0.00447
1205.64	0.000698
1215.29	0.00539
1224.93	0.00802
1234.58	0.02228
1244.22	0.03386
1253.87	0.01005
1263.51	0.00268
1273.16	0.00225
1282.8	0.00247
1292.45	0.0020432
1302.09	0.0021273
1311.74	0.0015824
1321.38	0.0018848
1331.03	0.0014859
1340.67	0.0013872
1350.32	0.0013658
1359.96	0.0011524
1369.61	0.0011721
1379.25	0.0011308
1388.9	0.00124266
1398.54	0.0019072
1408.18	0.0014802
1417.83	0.00130294
1427.47	0.001008
1437.12	0.0016718
1446.76	0.0025
1456.41	0.00297
1466.05	0.00237
1475.7	0.00458
1485.34	0.01933
1494.99	0.02897
1504.63	0.01017
1514.28	0.00555
1523.92	0.00298
1533.57	0.0021128
1543.21	0.0018279
1552.86	0.0018992
1562.5	0.0021205
1572.15	0.00383
1581.79	0.0099
1591.44	0.01707
1601.08	0.00779
1610.73	0.00251
1620.37	0.0016321
1630.01	0.0016351
1639.66	0.0019026
1649.3	0.0017334
1658.95	0.00125797
1668.59	0.001042
1678.24	0.000802
1687.88	0.000773
1697.53	0.00091
1707.17	0.001087
1716.82	0.001003
1726.46	0.001052
1736.11	0.000966
1745.75	0.0012689
1755.4	0.001112
1765.04	0.0014176
1774.69	0.000996
1784.33	0.000853
1793.98	0.000953
1803.62	0.000894
1813.27	0.000881
1822.91	0.000951
1832.55	0.00095
1842.2	0.00124201
1851.84	0.000932
1861.49	0.0011372
1871.13	0.0014746
1880.78	0.0017438
1890.42	0.0021486
1900.07	0.0016074
1909.71	0.0011315
1919.36	0.0011628
1929	0.000865
1938.65	0.001073
1948.29	0.00088
1957.94	0.00128346
1967.58	0.0011784
1977.23	0.000999
1986.87	0.001026
1996.52	0.000797
2006.16	0.001069
2015.81	0.000777
2025.45	0.0013771
2035.1	0.0011554
2044.74	0.00128109
2054.38	0.001181
2064.03	0.0011484
2073.67	0.00124079
2083.32	0.0013355
2092.96	0.001071
2102.61	0.001125
2112.25	0.001095
2121.9	0.000949
2131.54	0.000992
2141.19	0.00128237
2150.83	0.001124
2160.48	0.001064
2170.12	0.000936
2179.77	0.001113
2189.41	0.0011947
2199.06	0.0013869
2208.7	0.001089
2218.35	0.001071
2227.99	0.0014528
2237.64	0.0013784
2247.28	0.0015641
2256.92	0.0015461
2266.57	0.0015424
2276.21	0.0015652
2285.86	0.0014761
2295.5	0.0016551
2305.15	0.001653
2314.79	0.0014386
2324.44	0.0018187
2334.08	0.001084
2343.73	0.0015131
2353.37	0.00125491
2363.02	0.00131471
2372.66	0.0011628
2382.31	0.0011999
2391.95	0.0013616
2401.6	0.0013643
2411.24	0.0014274
2420.89	0.00125803
2430.53	0.001079
2440.18	0.0011839
2449.82	0.00127904
2459.47	0.000995
2469.11	0.0014487
2478.75	0.00131663
2488.4	0.001094
2498.04	0.0014084
2507.69	0.0017196
2517.33	0.0015083
2526.98	0.0012253
2536.62	0.00127898
2546.27	0.0012626
2555.91	0.00127031
2565.56	0.0014527
2575.2	0.0012171
2584.85	0.0014562
2594.49	0.0014252
2604.14	0.0014983
2613.78	0.0011643
2623.43	0.00123631
2633.07	0.0011823
2642.72	0.00106
2652.36	0.0011846
2662.01	0.00101
2671.65	0.001038
2681.29	0.0013609
2690.94	0.0014712
2700.58	0.0013894
2710.23	0.0011356
2719.87	0.001079
2729.52	0.000831
2739.16	0.00127119
2748.81	0.0015491
2758.45	0.00122192
2768.1	0.0013721
2777.74	0.0012103
2787.39	0.0011515
2797.03	0.0013318
2806.68	0.000919
2816.32	0.0016017
2825.97	0.0011583
2835.61	0.0013872
2845.26	0.00105
2854.9	0.0011679
2864.55	0.0013663
2874.19	0.001119
2883.84	0.000945
2893.48	0.00128566
2903.12	0.00122977
2912.77	0.000918
2922.41	0.0013803
2932.06	0.000826
2941.7	0.00107
2951.35	0.000937
2960.99	0.00128978
2970.64	0.0011699
2980.28	0.000711
2989.93	0.0014548
2999.57	0.00128308
3009.22	0.0015077
3018.86	0.0015056
3028.51	0.0012007
3038.15	0.0013707
3047.8	0.0015319
3057.44	0.0015363
3067.09	0.0016096
3076.73	0.0015334
3086.38	0.0013729
3096.02	0.0018034
3105.67	0.00124625
3115.31	0.00123843
3124.95	0.000882
3134.6	0.000781
3144.24	0.00132368
3153.89	0.000888
3163.53	0.000435
3173.18	0.0017624
3182.82	0.00127901
3192.47	0.0012055
3202.11	0.0015728
3211.76	0.0013581
3221.4	0.000979
3231.05	0.0013341
3240.69	0.00107
3250.34	0.000574
3259.98	0.000956
3269.63	0.000791
3279.27	0.00076
3288.92	0.0011889
3298.56	0.00101
3308.21	0.0014567
3317.85	0.0015589
3327.49	0.00122891
3337.14	0.000597
3346.78	0.0014045
3356.43	0.0012393
3366.07	0.000865
3375.72	0.0016926
3385.36	0.000416
3395.01	0.0012001
3404.65	0.00086
3414.3	0.00128899
3423.94	0.00055
3433.59	0.00101
3443.23	0.0011791
3452.88	0.000443
3462.52	0.00130232
3472.17	0.0017174
3481.81	0.000868
3491.46	0.0013878
3501.1	0.000766
3510.75	0.001043
3520.39	0.001117
3530.04	0.0012188
3539.68	0.00072
3549.32	0.0014424
3558.97	0.001016
3568.61	0.001378
3578.26	0.000907
3587.9	0.000929
3597.55	0.000718
3607.19	0.0016717
3616.84	0.0016723
3626.48	0.000885
3636.13	0.001083
3645.77	0.000923
3655.42	0.0018831
3665.06	0.000981
3674.71	0.0011985
3684.35	0.00128473
3694	0.001631
3703.64	0.0016075
3713.29	0.000856
3722.93	0.001014
3732.58	0.0011576
3742.22	0.0016167
3751.86	0.000936
3761.51	0.001077
3771.15	0.0012196
3780.8	0.000945
3790.44	0.00106
3800.09	0.00132642
3809.73	0.00112
3819.38	0.000921
3829.02	0.000934
3838.67	0.0017567
3848.31	0.0016162
3857.96	0.0012435
3867.6	0.0013343
3877.25	0.00047
3886.89	0.0018351
3896.54	0.0011645
3906.18	0.000393
3915.83	0.00124616
3925.47	0.0016951
3935.12	0.0013028
3944.76	0.000788
3954.41	0.0016469
3964.05	0.0016329
3973.69	0.0011924
3983.34	0.0014405
3992.98	0.000614
