Infrared Spectrum: TRIPHOSPHONITRILIC CHLORIDE
Formula: P3 N3 Cl6
CAS: 940-71-6
State: SOLID (MINERAL OIL MULL)
Class: COBLENTZ
Instrument: Not specified, most likely a prism, grating, or hybrid spectrometer.
Sampling: TRANSMISSION
Resolution: 4
Origin: WYANDOTTE CHEMICALS CORP., WYANDOTTE, MICHIGAN, USA
MICROMETERS	TRANSMITTANCE
2.007	0.567
2.04776	0.572
2.08851	0.587
2.12927	0.592
2.17002	0.596
2.21078	0.596
2.25154	0.603
2.29229	0.609
2.33305	0.621
2.37381	0.623
2.41456	0.628
2.45532	0.632
2.49607	0.633
2.53683	0.642
2.57759	0.66
2.61834	0.662
2.6591	0.678
2.69986	0.672
2.74061	0.674
2.78137	0.681
2.82212	0.669
2.86288	0.66
2.90364	0.657
2.94439	0.652
2.98515	0.654
3.02591	0.654
3.06666	0.65
3.10742	0.649
3.14817	0.642
3.18893	0.637
3.22969	0.633
3.27044	0.603
3.3112	0.5
3.35196	0.212
3.39271	0.134
3.43347	0.211
3.47422	0.282
3.51498	0.381
3.55574	0.768
3.59649	0.798
3.63725	0.805
3.67801	0.793
3.71876	0.798
3.75952	0.802
3.80027	0.812
3.84103	0.817
3.88179	0.826
3.92254	0.831
3.9633	0.836
4.00406	0.839
4.04481	0.841
4.08557	0.843
4.12632	0.846
4.16708	0.841
4.20784	0.846
4.24859	0.833
4.28935	0.843
4.3301	0.86
4.37086	0.89
4.41162	0.884
4.45237	0.875
4.49313	0.88
4.53389	0.884
4.57464	0.889
4.6154	0.89
4.65615	0.892
4.69691	0.899
4.73767	0.901
4.77842	0.894
4.81918	0.872
4.85994	0.87
4.90069	0.872
4.94145	0.89
4.9822	0.814
5.02296	0.812
5.06372	0.851
5.10447	0.862
5.14523	0.882
5.18599	0.908
5.22674	0.918
5.2675	0.916
5.30825	0.909
5.34901	0.892
5.38977	0.901
5.43052	0.913
5.47128	0.925
5.51204	0.928
5.55279	0.928
5.59355	0.925
5.6343	0.918
5.67506	0.921
5.71582	0.892
5.75657	0.902
5.79733	0.892
5.83809	0.89
5.87884	0.896
5.9196	0.882
5.96035	0.875
6.00111	0.867
6.04187	0.863
6.08262	0.867
6.12338	0.873
6.16414	0.884
6.20489	0.882
6.24565	0.89
6.2864	0.889
6.32716	0.89
6.36792	0.879
6.40867	0.868
6.44943	0.853
6.49018	0.851
6.53094	0.843
6.5717	0.856
6.61245	0.85
6.65321	0.839
6.69397	0.797
6.73472	0.73
6.77548	0.526
6.81623	0.494
6.85699	0.54
6.89775	0.618
6.9385	0.698
6.97926	0.776
7.02002	0.787
7.06077	0.78
7.10153	0.773
7.14228	0.775
7.18304	0.725
7.2238	0.568
7.26455	0.567
7.30531	0.623
7.34607	0.71
7.38682	0.712
7.42758	0.701
7.46833	0.684
7.50909	0.643
7.54985	0.579
7.5906	0.492
7.63136	0.54
7.67212	0.568
7.71287	0.546
7.75363	0.502
7.79438	0.461
7.83514	0.398
7.8759	0.32
7.91665	0.238
7.95741	0.139
7.99817	0.103
8.03892	0.103
8.07968	0.095
8.12043	0.08
8.16119	0.063
8.20195	0.054
8.2427	0.056
8.28346	0.074
8.32421	0.081
8.36497	0.078
8.40573	0.085
8.44648	0.103
8.48724	0.131
8.528	0.146
8.56875	0.173
8.60951	0.206
8.65026	0.24
8.69102	0.269
8.73178	0.311
8.77253	0.34
8.81329	0.379
8.85405	0.412
8.8948	0.419
8.93556	0.434
8.97631	0.473
9.01707	0.509
9.05783	0.528
9.09858	0.529
9.13934	0.54
9.1801	0.557
9.22085	0.572
9.26161	0.591
9.30236	0.601
9.34312	0.609
9.38388	0.623
9.42463	0.633
9.46539	0.638
9.50615	0.64
9.5469	0.645
9.58766	0.655
9.62841	0.657
9.66917	0.662
9.70993	0.669
9.75068	0.667
9.79144	0.674
9.8322	0.683
9.87295	0.691
9.91371	0.698
9.95446	0.701
9.99522	0.701
10.036	0.7
10.0767	0.693
10.1175	0.689
10.1582	0.708
10.199	0.715
10.2398	0.718
10.2805	0.72
10.3213	0.725
10.362	0.73
10.4028	0.732
10.4435	0.732
10.4843	0.737
10.5251	0.739
10.5658	0.746
10.6066	0.747
10.6473	0.747
10.6881	0.749
10.7288	0.749
10.7696	0.747
10.8103	0.746
10.8511	0.751
10.8919	0.752
10.9326	0.758
10.9734	0.761
11.0141	0.768
11.0549	0.77
11.0956	0.771
11.1364	0.776
11.1772	0.78
11.2179	0.778
11.2587	0.78
11.2994	0.778
11.3402	0.752
11.3809	0.676
11.4217	0.465
11.4624	0.448
11.5032	0.567
11.544	0.632
11.5847	0.669
11.6255	0.691
11.6662	0.701
11.707	0.72
11.7477	0.729
11.7885	0.741
11.8293	0.751
11.87	0.758
11.9108	0.761
11.9515	0.768
11.9923	0.768
12.033	0.766
12.0738	0.764
12.1145	0.763
12.1553	0.764
12.1961	0.763
12.2368	0.77
12.2776	0.773
12.3183	0.776
12.3591	0.781
12.3998	0.785
12.4406	0.79
12.4813	0.788
12.5221	0.795
12.5629	0.798
12.6036	0.802
12.6444	0.798
12.6851	0.798
12.7259	0.778
12.7666	0.756
12.8074	0.77
12.8482	0.78
12.8889	0.787
12.9297	0.787
12.9704	0.783
13.0112	0.783
13.0519	0.78
13.0927	0.78
13.1334	0.776
13.1742	0.773
13.215	0.771
13.2557	0.77
13.2965	0.776
13.3372	0.775
13.378	0.77
13.4187	0.766
13.4595	0.761
13.5003	0.763
13.541	0.759
13.5818	0.761
13.6225	0.764
13.6633	0.768
13.704	0.766
13.7448	0.766
13.7855	0.766
13.8263	0.763
13.8671	0.763
13.9078	0.768
13.9486	0.768
13.9893	0.775
14.0301	0.781
14.0708	0.781
14.1116	0.78
14.1524	0.78
14.1931	0.77
14.2339	0.771
14.2746	0.77
14.3154	0.761
14.3561	0.759
14.3969	0.758
14.4376	0.754
14.4784	0.756
14.5192	0.752
14.5599	0.749
14.6007	0.744
14.6414	0.744
14.6822	0.742
14.7229	0.739
14.7637	0.73
14.8045	0.72
14.8452	0.71
14.886	0.696
14.9267	0.684
14.9675	0.672
15.0082	0.652
15.049	0.64
15.0897	0.642
15.1305	0.657
15.1713	0.667
15.212	0.667
15.2528	0.66
15.2935	0.657
15.3343	0.645
15.375	0.633
15.4158	0.628
15.4566	0.618
15.4973	0.614
15.5381	0.609
15.5788	0.596
15.6196	0.586
15.6603	0.577
15.7011	0.568
15.7418	0.557
15.7826	0.55
15.8234	0.543
15.8641	0.538
15.9049	0.531
15.9456	0.528
