Infrared Spectrum: 4-Methylphenoxyacetic acid
Formula: C 9 H 10 O 3
CAS: 940-64-7
State: gas
Origin: EPA-IR VAPOR PHASE LIBRARY
1/CM	ABSORBANCE
549.9	0.01783
559.547	0.01901
569.193	0.01794
578.84	0.01717
588.486	0.01827
598.133	0.02092
607.779	0.02371
617.426	0.02468
627.072	0.02295
636.719	0.01946
646.365	0.01547
656.012	0.01302
665.658	0.01151
675.305	0.00991
684.951	0.00871
694.598	0.00771
704.245	0.00656
713.891	0.00653
723.538	0.00841
733.184	0.00829
742.831	0.00666
752.477	0.00659
762.124	0.00669
771.77	0.00569
781.417	0.00634
791.063	0.00994
800.71	0.01665
810.356	0.02322
820.003	0.02457
829.649	0.01985
839.296	0.01579
848.943	0.01133
858.589	0.00848
868.236	0.00724
877.882	0.00668
887.529	0.00572
897.175	0.00455
906.822	0.00405
916.468	0.00355
926.115	0.00335
935.761	0.00329
945.408	0.00337
955.054	0.00344
964.701	0.00374
974.347	0.00443
983.994	0.00526
993.64	0.00612
1003.29	0.00767
1012.93	0.01134
1022.58	0.01266
1032.23	0.0167
1041.87	0.0263
1051.52	0.03793
1061.17	0.04743
1070.81	0.0552
1080.46	0.0529
1090.11	0.03646
1099.75	0.0289
1109.4	0.03749
1119.05	0.05459
1128.69	0.05545
1138.34	0.04384
1147.99	0.04222
1157.63	0.04409
1167.28	0.04732
1176.92	0.04502
1186.57	0.03227
1196.22	0.03568
1205.86	0.05174
1215.51	0.07527
1225.16	0.09324
1234.8	0.08422
1244.45	0.06054
1254.1	0.04284
1263.74	0.03511
1273.39	0.03384
1283.04	0.03737
1292.68	0.03398
1302.33	0.02596
1311.98	0.0242
1321.62	0.02795
1331.27	0.03382
1340.92	0.03626
1350.56	0.03275
1360.21	0.02739
1369.86	0.02204
1379.5	0.01805
1389.15	0.01555
1398.79	0.01323
1408.44	0.01141
1418.09	0.0104
1427.73	0.0107
1437.38	0.01233
1447.03	0.01466
1456.67	0.012
1466.32	0.00868
1475.97	0.00896
1485.61	0.01329
1495.26	0.02941
1504.91	0.08461
1514.55	0.09468
1524.2	0.02892
1533.85	0.00949
1543.49	0.00588
1553.14	0.00493
1562.79	0.00506
1572.43	0.00674
1582.08	0.01025
1591.73	0.01338
1601.37	0.01621
1611.02	0.01872
1620.67	0.0131
1630.31	0.00648
1639.96	0.00443
1649.6	0.00336
1659.25	0.0027622
1668.9	0.002573
1678.54	0.0026354
1688.19	0.0028947
1697.84	0.00336
1707.48	0.0041
1717.13	0.00527
1726.78	0.00719
1736.42	0.01101
1746.07	0.01679
1755.72	0.02574
1765.36	0.04013
1775.01	0.06653
1784.66	0.07528
1794.3	0.07057
1803.95	0.09158
1813.6	0.08753
1823.24	0.04728
1832.89	0.023
1842.54	0.01411
1852.18	0.0097
1861.83	0.0072
1871.47	0.00571
1881.12	0.00438
1890.77	0.00347
1900.41	0.0029193
1910.06	0.0025042
1919.71	0.0021995
1929.35	0.002097
1939	0.002095
1948.65	0.002007
1958.29	0.001843
1967.94	0.001725
1977.59	0.001753
1987.23	0.00178
1996.88	0.001814
2006.53	0.001858
2016.17	0.001868
2025.82	0.001798
2035.47	0.00182
2045.11	0.001865
2054.76	0.001828
2064.41	0.001796
2074.05	0.001826
2083.7	0.001803
2093.35	0.001714
2102.99	0.001672
2112.64	0.001695
2122.28	0.001659
2131.93	0.00165
2141.58	0.001664
2151.22	0.001603
2160.87	0.001526
2170.52	0.001489
2180.16	0.001538
2189.81	0.001513
2199.46	0.001425
2209.1	0.001374
2218.75	0.001382
2228.4	0.001406
2238.04	0.001426
2247.69	0.001378
2257.34	0.001376
2266.98	0.001453
2276.63	0.001504
2286.28	0.001578
2295.92	0.001746
2305.57	0.001827
2315.22	0.001924
2324.86	0.001892
2334.51	0.001887
2344.16	0.001913
2353.8	0.001785
2363.45	0.001807
2373.09	0.001618
2382.74	0.00151
2392.39	0.001442
2402.03	0.001475
2411.68	0.001502
2421.33	0.001557
2430.97	0.001546
2440.62	0.001563
2450.27	0.001593
2459.91	0.001614
2469.56	0.001601
2479.21	0.001548
2488.85	0.00156
2498.5	0.001523
2508.15	0.0016
2517.79	0.001584
2527.44	0.001487
2537.09	0.001502
2546.73	0.001334
2556.38	0.001286
2566.03	0.001258
2575.67	0.001267
2585.32	0.001288
2594.96	0.00121
2604.61	0.00114
2614.26	0.00109
2623.9	0.00096
2633.55	0.00098
2643.2	0.00101
2652.84	0.00096
2662.49	0.00093
2672.14	0.00103
2681.78	0.00104
2691.43	0.00109
2701.08	0.00114
2710.72	0.00118
2720.37	0.00122
2730.02	0.001274
2739.66	0.001717
2749.31	0.00178
2758.96	0.001336
2768.6	0.00118
2778.25	0.001358
2787.9	0.001404
2797.54	0.001482
2807.19	0.001557
2816.84	0.001816
2826.48	0.002119
2836.13	0.0028333
2845.77	0.00383
2855.42	0.00521
2865.07	0.00791
2874.71	0.01079
2884.36	0.01104
2894.01	0.0097
2903.65	0.01008
2913.3	0.01262
2922.95	0.01831
2932.59	0.02526
2942.24	0.0224
2951.89	0.01463
2961.53	0.01134
2971.18	0.00953
2980.83	0.00833
2990.47	0.00862
3000.12	0.0096
3009.77	0.01027
3019.41	0.0112
3029.06	0.0161
3038.71	0.019
3048.35	0.01219
3058	0.00868
3067.64	0.00748
3077.29	0.0064
3086.94	0.00476
3096.58	0.00405
3106.23	0.00348
3115.88	0.0025963
3125.52	0.001981
3135.17	0.001276
3144.82	0.00086
3154.46	0.00037
3164.11	0.00034
3173.76	0.00021
3183.4	0.00025
3193.05	0.00028
3202.7	0.00021
3212.34	0.00013
3221.99	4e-05
3231.64	0.00016
3241.28	0.0001
3250.93	0.00017
3260.58	0.00011
3270.22	0.00023
3279.87	0.00025
3289.52	0.00033
3299.16	0.00027
3308.81	0.00016
3318.45	0.00029
3328.1	0.00024
3337.75	0.00039
3347.39	0.00027
3357.04	0.00028
3366.69	0.00037
3376.33	0.00023
3385.98	0.00036
3395.63	0.00028
3405.27	0.00031
3414.92	0.00039
3424.57	0.00066
3434.21	0.0008
3443.86	0.00091
3453.51	0.00106
3463.15	0.00121
3472.8	0.001683
3482.45	0.0024804
3492.09	0.00399
3501.74	0.00656
3511.39	0.01132
3521.03	0.01783
3530.68	0.01595
3540.33	0.01037
3549.97	0.00893
3559.62	0.0129
3569.26	0.03044
3578.91	0.03837
3588.56	0.01743
3598.2	0.00624
3607.85	0.00354
3617.5	0.0024623
3627.14	0.001756
3636.79	0.001332
3646.44	0.001301
3656.08	0.001241
3665.73	0.00102
3675.38	0.00099
3685.02	0.001
3694.67	0.00111
3704.32	0.00104
3713.96	0.00097
3723.61	0.00104
3733.26	0.00105
3742.9	0.00112
3752.55	0.00097
3762.2	0.00099
3771.84	0.00095
3781.49	0.00107
3791.13	0.00106
3800.78	0.00108
3810.43	0.00105
3820.07	0.00117
3829.72	0.00116
3839.37	0.00118
3849.01	0.00105
3858.66	0.00112
3868.31	0.00113
3877.95	0.00116
3887.6	0.00116
3897.25	0.001242
3906.89	0.001261
3916.54	0.00117
3926.19	0.001253
3935.83	0.001317
3945.48	0.001273
3955.13	0.001375
3964.77	0.001249
3974.42	0.001312
3984.07	0.00129
3993.71	0.001379
