Infrared Spectrum: .beta.-Phenylethyltrichlorosilane
Formula: C 8 H 9 Cl 3 Si
CAS: 940-41-0
State: gas
Origin: EPA-IR VAPOR PHASE LIBRARY
1/CM	ABSORBANCE
549.8	0.045381
559.445	0.035291
569.09	0.051581
578.734	0.032121
588.379	0.007281
598.024	0.002051
607.669	0.0009972
617.313	0.0007586
626.958	0.0009083
636.603	0.0010098
646.248	0.0014369
655.893	0.001851
665.537	0.002731
675.182	0.004751
684.827	0.007511
694.472	0.005861
704.116	0.005451
713.761	0.012611
723.406	0.009851
733.051	0.003731
742.695	0.004991
752.34	0.003741
761.985	0.001941
771.63	0.0013832
781.275	0.00089
790.919	0.0004802
800.564	0.0006789
810.209	0.00053613
819.854	0.0007022
829.498	0.00054082
839.143	0.000394
848.788	0.00051655
858.433	0.0006548
868.078	0.000396
877.722	0.0004362
887.367	0.00053299
897.012	0.000769
906.657	0.0004738
916.301	0.000371
925.946	0.000406
935.591	0.0005043
945.236	0.0006245
954.88	0.000529301
964.525	0.0006903
974.17	0.0007073
983.815	0.0008157
993.46	0.0007508
1003.1	0.0009948
1012.75	0.00057268
1022.39	0.0006829
1032.04	0.0009946
1041.68	0.0004302
1051.33	0.0006406
1060.97	0.0007114
1070.62	0.0008725
1080.26	0.00053209
1089.91	0.001366
1099.55	0.006441
1109.2	0.009741
1118.84	0.003291
1128.49	0.001761
1138.13	0.002681
1147.78	0.001601
1157.42	0.0008935
1167.07	0.0007865
1176.71	0.00061993
1186.36	0.0009218
1196	0.0012445
1205.64	0.0006583
1215.29	0.0006387
1224.93	0.00051443
1234.58	0.0006463
1244.22	0.000875
1253.87	0.001761
1263.51	0.002581
1273.16	0.003981
1282.8	0.009621
1292.45	0.024681
1302.09	0.025061
1311.74	0.007481
1321.38	0.001591
1331.03	0.00097
1340.67	0.0008228
1350.32	0.0007166
1359.96	0.0007911
1369.61	0.0008555
1379.25	0.0007765
1388.9	0.0006655
1398.54	0.0006698
1408.18	0.000802
1417.83	0.0011391
1427.47	0.002031
1437.12	0.003461
1446.76	0.003191
1456.41	0.001611
1466.05	0.0008824
1475.7	0.0007697
1485.34	0.0009778
1494.99	0.0007753
1504.63	0.0004746
1514.28	0.0005021
1523.92	0.0006316
1533.57	0.000494
1543.21	0.0004904
1552.86	0.0005349
1562.5	0.00053165
1572.15	0.00058747
1581.79	0.0010134
1591.44	0.0010499
1601.08	0.0007715
1610.73	0.00057194
1620.37	0.0006388
1630.01	0.00059878
1639.66	0.00061416
1649.3	0.00057172
1658.95	0.0006538
1668.59	0.0008105
1678.24	0.0007701
1687.88	0.00059987
1697.53	0.0006318
1707.17	0.0007543
1716.82	0.0006919
1726.46	0.000766
1736.11	0.0006321
1745.75	0.0006247
1755.4	0.0006995
1765.04	0.0007581
1774.69	0.0007338
1784.33	0.00060977
1793.98	0.0008294
1803.62	0.001038
1813.27	0.0010801
1822.91	0.0009688
1832.55	0.0007464
1842.2	0.0006528
1851.84	0.0006862
1861.49	0.0006673
1871.13	0.0007424
1880.78	0.0007733
1890.42	0.0008519
1900.07	0.0009563
1909.71	0.0009292
1919.36	0.0007477
1929	0.00058124
1938.65	0.0006514
1948.29	0.0006915
1957.94	0.0008183
1967.58	0.0009015
1977.23	0.0008633
1986.87	0.0006427
1996.52	0.00057992
2006.16	0.00051543
2015.81	0.00051751
2025.45	0.0004783
2035.1	0.0004891
2044.74	0.000523725
2054.38	0.0004959
2064.03	0.00057228
2073.67	0.00051493
2083.32	0.00059966
2092.96	0.00059459
2102.61	0.0005962
2112.25	0.000458
2121.9	0.00055107
2131.54	0.00059153
2141.19	0.00061283
2150.83	0.0006338
2160.48	0.00056102
2170.12	0.0006847
2179.77	0.00055657
2189.41	0.0005921
2199.06	0.0006518
2208.7	0.0006749
2218.35	0.000685
2227.99	0.0006768
2237.64	0.0006853
2247.28	0.0006762
2256.92	0.00061651
2266.57	0.000678
2276.21	0.000655
2285.86	0.0006366
2295.5	0.0007214
2305.15	0.0006897
2314.79	0.0007611
2324.44	0.0008006
2334.08	0.0007135
2343.73	0.0007042
2353.37	0.0007816
2363.02	0.0007013
2372.66	0.0007726
2382.31	0.0006819
2391.95	0.0006811
2401.6	0.0007809
2411.24	0.0006804
2420.89	0.00055441
2430.53	0.00060268
2440.18	0.0006832
2449.82	0.0006981
2459.47	0.0006969
2469.11	0.0007618
2478.75	0.00060862
2488.4	0.0006957
2498.04	0.0006828
2507.69	0.0006672
2517.33	0.0006599
2526.98	0.0005805
2536.62	0.0006549
2546.27	0.000908
2555.91	0.0007706
2565.56	0.0007537
2575.2	0.0007911
2584.85	0.0009529
2594.49	0.000911
2604.14	0.0007355
2613.78	0.0007953
2623.43	0.0008021
2633.07	0.0007529
2642.72	0.0006989
2652.36	0.0006748
2662.01	0.0006861
2671.65	0.0007603
2681.29	0.0008215
2690.94	0.0007459
2700.58	0.0009898
2710.23	0.0008539
2719.87	0.0007233
2729.52	0.0006415
2739.16	0.0007997
2748.81	0.0006766
2758.45	0.0007869
2768.1	0.0006673
2777.74	0.0007885
2787.39	0.0006652
2797.03	0.0007096
2806.68	0.00061912
2816.32	0.0008182
2825.97	0.0007866
2835.61	0.0007869
2845.26	0.0008516
2854.9	0.0006694
2864.55	0.00058356
2874.19	0.0007749
2883.84	0.0007672
2893.48	0.0007679
2903.12	0.0007639
2912.77	0.0008736
2922.41	0.0007737
2932.06	0.0007861
2941.7	0.0007926
2951.35	0.0007171
2960.99	0.0008952
2970.64	0.000792
2980.28	0.0007808
2989.93	0.0008414
2999.57	0.0009314
3009.22	0.0009004
3018.86	0.0009349
3028.51	0.0009953
3038.15	0.0011498
3047.8	0.0011869
3057.44	0.001891
3067.09	0.003611
3076.73	0.003971
3086.38	0.002591
3096.02	0.001971
3105.67	0.0012055
3115.31	0.0009311
3124.95	0.0007392
3134.6	0.0007058
3144.24	0.00058936
3153.89	0.0007915
3163.53	0.0006943
3173.18	0.00061263
3182.82	0.0006989
3192.47	0.00053481
3202.11	0.0007019
3211.76	0.0005457
3221.4	0.00055758
3231.05	0.0004734
3240.69	0.0006784
3250.34	0.000383
3259.98	0.0006012
3269.63	0.00051335
3279.27	0.00051297
3288.92	0.00058482
3298.56	0.00055865
3308.21	0.00059585
3317.85	0.00057242
3327.49	0.000312
3337.14	0.00029
3346.78	0.0004295
3356.43	0.00053541
3366.07	0.0005093
3375.72	0.0006261
3385.36	0.0004871
3395.01	0.000338
3404.65	0.00019
3414.3	0.0006532
3423.94	0.000288
3433.59	0.000358
3443.23	0.000316
3452.88	0.0004455
3462.52	0.000391
3472.17	0.000382
3481.81	0.0004737
3491.46	0.000358
3501.1	0.000401
3510.75	0.000333
3520.39	0.000358
3530.04	0.000411
3539.68	0.000195
3549.32	0.000382
3558.97	0.0004529
3568.61	0.000235
3578.26	0.000249
3587.9	0.000321
3597.55	0.000243
3607.19	0.000274
3616.84	0.00026
3626.48	0.000276
3636.13	0.000347
3645.77	0.000188
3655.42	0.0004389
3665.06	0.000395
3674.71	0.0005339
3684.35	0.00051936
3694	0.000293
3703.64	0.000626
3713.29	0.00037
3722.93	0.0004776
3732.58	0.000275
3742.22	0.000401
3751.86	0.000349
3761.51	0.000222
3771.15	0.000269
3780.8	0.0004258
3790.44	0.00053975
3800.09	0.0004533
3809.73	0.000358
3819.38	0.000147
3829.02	0.000226
3838.67	0.000267
3848.31	0.000157
3857.96	0.000358
3867.6	0.000101
3877.25	0.000146
3886.89	0.000269
3896.54	0.00056557
3906.18	0.000134
3915.83	0.000391
3925.47	0.000207
3935.12	0.000304
3944.76	5e-05
3954.41	0.00045
3964.05	0.0004414
3973.69	0.000121
3983.34	0.000225
3992.98	0.0004617
