Infrared Spectrum: DL-4-(2-BENZOYLOXYETHYL)-2-PHENYL-Delta^2-THIAZOLINE
Formula: C18 H17 N O2 S
CAS: 94004-88-3
Boiling point: 186-187 C AT 0.2 mmHg
Class: COBLENTZ
Instrument: Not specified, most likely a prism, grating, or hybrid spectrometer.
Sampling: TRANSMISSION
Resolution: 4
Origin: ARTHUR D. LITTLE, INC.
1/CM	TRANSMITTANCE
649.175	0.544
657.029	0.468
664.884	0.4
672.738	0.296
680.592	0.196
688.447	0.41
696.301	0.211
704.155	0.132
712.009	0.459
719.864	0.681
727.718	0.71
735.572	0.701
743.427	0.663
751.281	0.434
759.135	0.285
766.99	0.643
774.844	0.746
782.698	0.753
790.553	0.738
798.407	0.743
806.261	0.772
814.115	0.764
821.97	0.748
829.824	0.736
837.678	0.727
845.533	0.736
853.387	0.747
861.241	0.765
869.096	0.78
876.95	0.784
884.804	0.771
892.659	0.735
900.513	0.652
908.367	0.596
916.221	0.552
924.076	0.38
931.93	0.464
939.784	0.552
947.639	0.432
955.493	0.439
963.347	0.592
971.202	0.655
979.056	0.63
986.91	0.565
994.765	0.588
1002.62	0.596
1010.47	0.523
1018.33	0.318
1026.18	0.632
1034.04	0.652
1041.89	0.636
1049.74	0.598
1057.6	0.361
1065.45	0.494
1073.31	0.544
1081.16	0.396
1089.02	0.281
1096.87	0.226
1104.72	0.173
1112.58	0.263
1120.43	0.517
1128.29	0.605
1136.14	0.625
1144	0.606
1151.85	0.642
1159.71	0.531
1167.56	0.513
1175.41	0.709
1183.27	0.714
1191.12	0.692
1198.98	0.642
1206.83	0.565
1214.69	0.505
1222.54	0.43
1230.39	0.335
1238.25	0.228
1246.1	0.161
1253.96	0.105
1261.81	0.088
1269.67	0.118
1277.52	0.264
1285.37	0.427
1293.23	0.461
1301.08	0.302
1308.94	0.489
1316.79	0.606
1324.65	0.609
1332.5	0.664
1340.35	0.696
1348.21	0.711
1356.06	0.718
1363.92	0.656
1371.77	0.632
1379.63	0.682
1387.48	0.742
1395.33	0.76
1403.19	0.757
1411.04	0.752
1418.9	0.746
1426.75	0.732
1434.61	0.685
1442.46	0.575
1450.31	0.352
1458.17	0.66
1466.02	0.713
1473.88	0.771
1481.73	0.79
1489.59	0.564
1497.44	0.802
1505.29	0.856
1513.15	0.85
1521	0.843
1528.86	0.852
1536.71	0.85
1544.57	0.839
1552.42	0.821
1560.27	0.785
1568.13	0.721
1575.98	0.526
1583.84	0.571
1591.69	0.546
1599.55	0.373
1607.4	0.4
1615.25	0.536
1623.11	0.672
1630.96	0.8
1638.82	0.814
1646.67	0.811
1654.53	0.81
1662.38	0.803
1670.24	0.788
1678.09	0.765
1685.94	0.747
1693.8	0.707
1701.65	0.5
1709.51	0.219
1717.36	0.118
1725.22	0.147
1733.07	0.414
1740.92	0.686
1748.78	0.79
1756.63	0.819
1764.49	0.827
1772.34	0.831
1780.2	0.834
1788.05	0.842
1795.9	0.848
1803.76	0.853
1811.61	0.851
1819.47	0.85
1827.32	0.868
1835.18	0.872
1843.03	0.876
1850.88	0.88
1858.74	0.881
1866.59	0.877
1874.45	0.876
1882.3	0.872
1890.16	0.861
1898.01	0.853
1905.86	0.848
1913.72	0.847
1921.57	0.851
1929.43	0.853
1937.28	0.865
1945.14	0.856
1952.99	0.85
1960.84	0.842
1968.7	0.842
1976.55	0.846
1984.41	0.852
1992.26	0.863
2000.12	0.864
2007.97	0.875
2015.82	0.877
2023.68	0.88
2031.53	0.873
2039.39	0.872
2047.24	0.873
2055.1	0.872
2062.95	0.872
2070.8	0.871
2078.66	0.871
2086.51	0.872
2094.37	0.871
2102.22	0.868
2110.08	0.865
2117.93	0.865
2125.79	0.868
2133.64	0.865
2141.49	0.867
2149.35	0.869
2157.2	0.869
2165.06	0.865
2172.91	0.863
2180.77	0.863
2188.62	0.865
2196.47	0.865
2204.33	0.861
2212.18	0.861
2220.04	0.859
2227.89	0.855
2235.75	0.853
2243.6	0.852
2251.45	0.852
2259.31	0.853
2267.16	0.856
2275.02	0.853
2282.87	0.856
2290.73	0.855
2298.58	0.852
2306.43	0.855
2314.29	0.852
2322.14	0.85
2330	0.848
2337.85	0.848
2345.71	0.848
2353.56	0.848
2361.41	0.848
2369.27	0.848
2377.12	0.848
2384.98	0.848
2392.83	0.85
2400.69	0.85
2408.54	0.852
2416.39	0.855
2424.25	0.852
2432.1	0.85
2439.96	0.85
2447.81	0.85
2455.67	0.85
2463.52	0.851
2471.37	0.851
2479.23	0.851
2487.08	0.85
2494.94	0.848
2502.79	0.847
2510.65	0.846
2518.5	0.842
2526.35	0.844
2534.21	0.839
2542.06	0.842
2549.92	0.843
2557.77	0.844
2565.63	0.839
2573.48	0.838
2581.33	0.843
2589.19	0.84
2597.04	0.839
2604.9	0.838
2612.75	0.839
2620.61	0.838
2628.46	0.835
2636.32	0.843
2644.17	0.847
2652.02	0.846
2659.88	0.846
2667.73	0.848
2675.59	0.85
2683.44	0.85
2691.3	0.85
2699.15	0.848
2707	0.847
2714.86	0.846
2722.71	0.844
2730.57	0.843
2738.42	0.84
2746.28	0.839
2754.13	0.836
2761.98	0.835
2769.84	0.835
2777.69	0.835
2785.55	0.836
2793.4	0.838
2801.26	0.838
2809.11	0.835
2816.96	0.832
2824.82	0.826
2832.67	0.817
2840.53	0.79
2848.38	0.768
2856.24	0.738
2864.09	0.731
2871.94	0.736
2879.8	0.751
2887.65	0.751
2895.51	0.742
2903.36	0.707
2911.22	0.698
2919.07	0.676
2926.92	0.646
2934.78	0.636
2942.63	0.632
2950.49	0.63
2958.34	0.625
2966.2	0.625
2974.05	0.655
2981.9	0.693
2989.76	0.727
2997.61	0.75
3005.47	0.768
3013.32	0.776
3021.18	0.781
3029.03	0.764
3036.88	0.714
3044.74	0.73
3052.59	0.746
3060.45	0.723
3068.3	0.667
3076.16	0.685
3084.01	0.728
3091.86	0.752
3099.72	0.781
3107.57	0.797
3115.43	0.802
3123.28	0.822
3131.14	0.831
3138.99	0.832
3146.85	0.834
3154.7	0.832
3162.55	0.831
3170.41	0.832
3178.26	0.834
3186.12	0.831
3193.97	0.834
3201.83	0.834
3209.68	0.836
3217.53	0.842
3225.39	0.844
3233.24	0.847
3241.1	0.848
3248.95	0.85
3256.81	0.851
3264.66	0.85
3272.51	0.85
3280.37	0.851
3288.22	0.852
3296.08	0.847
3303.93	0.843
3311.79	0.84
3319.64	0.839
3327.49	0.838
3335.35	0.838
3343.2	0.836
