Infrared Spectrum: n-HEPTYLSULFONYLPROPANONE
Formula: C10 H20 O3 S
CAS: 94045-48-4
Melting point: 121-122 C
Class: COBLENTZ
Instrument: Not specified, most likely a prism, grating, or hybrid spectrometer.
Sampling: TRANSMISSION
Path length: SMEAR ON NaCl
Resolution: 4
Origin: EASTMAN KODAK COMPANY, RESEARCH LABORATORIES, ROCHESTER, N.Y.
MICROMETERS	TRANSMITTANCE
2.007	0.904
2.04694	0.904
2.08689	0.903
2.12683	0.903
2.16677	0.903
2.20671	0.9
2.24666	0.893
2.2866	0.877
2.32654	0.875
2.36649	0.877
2.40643	0.878
2.44637	0.88
2.48631	0.89
2.52626	0.893
2.5662	0.898
2.60614	0.906
2.64609	0.913
2.68603	0.919
2.72597	0.929
2.76591	0.901
2.80586	0.88
2.8458	0.881
2.88574	0.885
2.92568	0.883
2.96563	0.89
3.00557	0.901
3.04551	0.903
3.08546	0.901
3.1254	0.904
3.16534	0.901
3.20528	0.898
3.24523	0.886
3.28517	0.862
3.32511	0.791
3.36506	0.56
3.405	0.163
3.44494	0.304
3.48488	0.368
3.52483	0.465
3.56477	0.785
3.60471	0.852
3.64466	0.878
3.6846	0.886
3.72454	0.893
3.76448	0.898
3.80443	0.909
3.84437	0.914
3.88431	0.918
3.92426	0.921
3.9642	0.927
4.00414	0.931
4.04408	0.929
4.08403	0.926
4.12397	0.921
4.16391	0.921
4.20385	0.924
4.2438	0.922
4.28374	0.927
4.32368	0.932
4.36363	0.945
4.40357	0.937
4.44351	0.939
4.48345	0.94
4.5234	0.944
4.56334	0.942
4.60328	0.94
4.64323	0.944
4.68317	0.947
4.72311	0.947
4.76305	0.95
4.803	0.952
4.84294	0.954
4.88288	0.954
4.92283	0.957
4.96277	0.96
5.00271	0.957
5.04265	0.955
5.0826	0.96
5.12254	0.959
5.16248	0.96
5.20243	0.963
5.24237	0.967
5.28231	0.968
5.32225	0.97
5.3622	0.965
5.40214	0.963
5.44208	0.965
5.48203	0.962
5.52197	0.959
5.56191	0.952
5.60185	0.934
5.6418	0.922
5.68174	0.88
5.72168	0.788
5.76162	0.516
5.80157	0.154
5.84151	0.319
5.88145	0.554
5.9214	0.79
5.96134	0.847
6.00128	0.883
6.04122	0.909
6.08117	0.913
6.12111	0.914
6.16105	0.914
6.201	0.922
6.24094	0.932
6.28088	0.94
6.32082	0.944
6.36077	0.949
6.40071	0.949
6.44065	0.95
6.4806	0.945
6.52054	0.944
6.56048	0.942
6.60042	0.939
6.64037	0.932
6.68031	0.929
6.72025	0.909
6.7602	0.854
6.80014	0.778
6.84008	0.519
6.88002	0.56
6.91997	0.65
6.95991	0.675
6.99985	0.663
7.03979	0.6
7.07974	0.568
7.11968	0.557
7.15962	0.56
7.19957	0.611
7.23951	0.649
7.27945	0.559
7.31939	0.495
7.35934	0.35
7.39928	0.37
7.43922	0.519
7.47917	0.542
7.51911	0.396
7.55905	0.15
7.59899	0.103
7.63894	0.104
7.67888	0.121
7.71882	0.149
7.75877	0.208
7.79871	0.283
7.83865	0.36
7.87859	0.411
7.91854	0.503
7.95848	0.49
7.99842	0.434
8.03837	0.416
8.07831	0.432
8.11825	0.488
8.15819	0.519
8.19814	0.539
8.23808	0.557
8.27802	0.578
8.31796	0.591
8.35791	0.609
8.39785	0.637
8.43779	0.639
8.47774	0.611
8.51768	0.568
8.55762	0.518
8.59756	0.463
8.63751	0.393
8.67745	0.337
8.71739	0.306
8.75734	0.278
8.79728	0.268
8.83722	0.281
8.87716	0.306
8.91711	0.237
8.95705	0.16
8.99699	0.181
9.03694	0.3
9.07688	0.463
9.11682	0.604
9.15676	0.701
9.19671	0.74
9.23665	0.781
9.27659	0.824
9.31654	0.862
9.35648	0.891
9.39642	0.896
9.43636	0.901
9.47631	0.904
9.51625	0.908
9.55619	0.914
9.59614	0.913
9.63608	0.903
9.67602	0.89
9.71596	0.865
9.75591	0.855
9.79585	0.847
9.83579	0.824
9.87573	0.803
9.91568	0.773
9.95562	0.76
9.99556	0.755
10.0355	0.74
10.0754	0.691
10.1154	0.639
10.1553	0.6
10.1953	0.618
10.2352	0.681
10.2752	0.731
10.3151	0.772
10.355	0.803
10.395	0.837
10.4349	0.86
10.4749	0.886
10.5148	0.896
10.5548	0.913
10.5947	0.922
10.6346	0.931
10.6746	0.932
10.7145	0.932
10.7545	0.931
10.7944	0.932
10.8344	0.939
10.8743	0.945
10.9142	0.944
10.9542	0.931
10.9941	0.896
11.0341	0.88
11.074	0.895
11.114	0.908
11.1539	0.913
11.1938	0.914
11.2338	0.913
11.2737	0.903
11.3137	0.883
11.3536	0.86
11.3936	0.831
11.4335	0.813
11.4734	0.804
11.5134	0.804
11.5533	0.818
11.5933	0.832
11.6332	0.834
11.6732	0.832
11.7131	0.829
11.753	0.818
11.793	0.796
11.8329	0.777
11.8729	0.75
11.9128	0.719
11.9528	0.708
11.9927	0.693
12.0326	0.665
12.0726	0.654
12.1125	0.647
12.1525	0.644
12.1924	0.639
12.2324	0.629
12.2723	0.614
12.3122	0.59
12.3522	0.57
12.3921	0.578
12.4321	0.621
12.472	0.667
12.512	0.716
12.5519	0.745
12.5918	0.759
12.6318	0.765
12.6717	0.765
12.7117	0.765
12.7516	0.765
12.7916	0.768
12.8315	0.768
12.8714	0.765
12.9114	0.757
12.9513	0.744
12.9913	0.726
13.0312	0.709
13.0712	0.696
13.1111	0.683
13.151	0.688
13.191	0.704
13.2309	0.719
13.2709	0.732
13.3108	0.745
13.3508	0.75
13.3907	0.754
13.4306	0.754
13.4706	0.752
13.5105	0.749
13.5505	0.732
13.5904	0.724
13.6304	0.703
13.6703	0.686
13.7102	0.663
13.7502	0.647
13.7901	0.636
13.8301	0.647
13.87	0.673
13.91	0.7
13.9499	0.719
13.9898	0.74
14.0298	0.749
14.0697	0.76
14.1097	0.762
14.1496	0.765
14.1896	0.763
14.2295	0.76
14.2694	0.759
14.3094	0.759
14.3493	0.765
14.3893	0.77
14.4292	0.78
14.4692	0.783
14.5091	0.786
14.549	0.788
14.589	0.79
14.6289	0.786
14.6689	0.785
14.7088	0.781
14.7488	0.781
14.7887	0.778
14.8286	0.768
14.8686	0.752
14.9085	0.749
14.9485	0.739
14.9884	0.719
15.0284	0.709
15.0683	0.7
15.1082	0.691
15.1482	0.683
15.1881	0.68
15.2281	0.678
15.268	0.678
15.308	0.675
15.3479	0.67
15.3878	0.667
15.4278	0.665
15.4677	0.668
15.5077	0.659
15.5476	0.659
15.5876	0.657
15.6275	0.655
15.6674	0.652
15.7074	0.649
15.7473	0.649
15.7873	0.649
15.8272	0.649
15.8672	0.644
15.9071	0.639
15.947	0.636
15.987	0.629
