Infrared Spectrum: 2-(P-T-BUTYL PHENYL MERCAPTO)-3-METHYL PYRAZINE
Formula: C15 H18 N2 S
CAS: 94065-57-3
State: SOLID (MINERAL OIL MULL)
Melting point: 90.5-91.5 C
Class: COBLENTZ
Instrument: Not specified, most likely a prism, grating, or hybrid spectrometer.
Sampling: TRANSMISSION
Resolution: 4
Origin: WYANDOTTE CHEMICALS CORP., WYANDOTTE, MICHIGAN, USA
MICROMETERS	TRANSMITTANCE
2.027	0.296
2.06685	0.302
2.10669	0.307
2.14654	0.304
2.18638	0.302
2.22623	0.307
2.26607	0.314
2.30592	0.319
2.34577	0.322
2.38561	0.326
2.42546	0.332
2.4653	0.337
2.50515	0.344
2.545	0.347
2.58484	0.349
2.62469	0.352
2.66453	0.352
2.70438	0.354
2.74422	0.352
2.78407	0.347
2.82392	0.347
2.86376	0.349
2.90361	0.35
2.94345	0.35
2.9833	0.352
3.02315	0.359
3.06299	0.365
3.10284	0.372
3.14268	0.377
3.18253	0.38
3.22237	0.344
3.26222	0.314
3.30207	0.137
3.34191	0.033
3.38176	0.041
3.4216	0.062
3.46145	0.064
3.5013	0.336
3.54114	0.48
3.58099	0.509
3.62083	0.508
3.66068	0.498
3.70052	0.511
3.74037	0.513
3.78022	0.523
3.82006	0.531
3.85991	0.538
3.89975	0.548
3.9396	0.557
3.97945	0.559
4.01929	0.566
4.05914	0.571
4.09898	0.571
4.13883	0.572
4.17867	0.574
4.21852	0.571
4.25837	0.567
4.29821	0.577
4.33806	0.597
4.3779	0.599
4.41775	0.6
4.45759	0.607
4.49744	0.61
4.53729	0.617
4.57713	0.622
4.61698	0.63
4.65682	0.635
4.69667	0.639
4.73652	0.642
4.77636	0.652
4.81621	0.657
4.85605	0.658
4.8959	0.665
4.93574	0.667
4.97559	0.67
5.01544	0.672
5.05528	0.675
5.09513	0.685
5.13497	0.687
5.17482	0.688
5.21467	0.665
5.25451	0.668
5.29436	0.683
5.3342	0.7
5.37405	0.711
5.41389	0.708
5.45374	0.718
5.49359	0.723
5.53343	0.706
5.57328	0.72
5.61312	0.703
5.65297	0.72
5.69282	0.715
5.73266	0.71
5.77251	0.726
5.81235	0.728
5.8522	0.716
5.89204	0.723
5.93189	0.725
5.97174	0.706
6.01158	0.672
6.05143	0.715
6.09127	0.73
6.13112	0.746
6.17097	0.751
6.21081	0.738
6.25066	0.754
6.2905	0.769
6.33035	0.761
6.37019	0.769
6.41004	0.754
6.44989	0.764
6.48973	0.741
6.52958	0.637
6.56942	0.483
6.60927	0.599
6.64911	0.514
6.68896	0.418
6.72881	0.385
6.76865	0.195
6.8085	0.21
6.84834	0.261
6.88819	0.372
6.92804	0.476
6.96788	0.531
7.00773	0.597
7.04757	0.612
7.08742	0.554
7.12726	0.437
7.16711	0.423
7.20696	0.211
7.2468	0.25
7.28665	0.317
7.32649	0.332
7.36634	0.36
7.40619	0.423
7.44603	0.614
7.48588	0.678
7.52572	0.713
7.56557	0.731
7.60541	0.736
7.64526	0.743
7.68511	0.759
7.72495	0.773
7.7648	0.783
7.80464	0.766
7.84449	0.556
7.88434	0.566
7.92418	0.687
7.96403	0.728
8.00387	0.75
8.04372	0.758
8.08356	0.751
8.12341	0.761
8.16326	0.778
8.2031	0.716
8.24295	0.518
8.28279	0.652
8.32264	0.677
8.36248	0.602
8.40233	0.683
8.44218	0.766
8.48202	0.745
8.52187	0.564
8.56171	0.465
8.60156	0.625
8.64141	0.728
8.68125	0.788
8.7211	0.832
8.76094	0.847
8.80079	0.846
8.84063	0.834
8.88048	0.697
8.92033	0.703
8.96017	0.72
9.00002	0.751
9.03986	0.622
9.07971	0.399
9.11956	0.286
9.1594	0.226
9.19925	0.332
9.23909	0.523
9.27894	0.657
9.31878	0.559
9.35863	0.337
9.39848	0.425
9.43832	0.543
9.47817	0.602
9.51801	0.647
9.55786	0.657
9.59771	0.635
9.63755	0.657
9.6774	0.655
9.71724	0.614
9.75709	0.644
9.79693	0.69
9.83678	0.48
9.87663	0.634
9.91647	0.698
9.95632	0.731
9.99616	0.748
10.036	0.766
10.0759	0.768
10.1157	0.768
10.1555	0.759
10.1954	0.736
10.2352	0.68
10.2751	0.622
10.3149	0.604
10.3548	0.6
10.3946	0.649
10.4345	0.703
10.4743	0.748
10.5142	0.776
10.554	0.774
10.5939	0.779
10.6337	0.801
10.6735	0.802
10.7134	0.807
10.7532	0.821
10.7931	0.814
10.8329	0.806
10.8728	0.829
10.9126	0.846
10.9525	0.852
10.9923	0.857
11.0322	0.86
11.072	0.862
11.1118	0.86
11.1517	0.864
11.1915	0.862
11.2314	0.862
11.2712	0.864
11.3111	0.862
11.3509	0.862
11.3908	0.869
11.4306	0.874
11.4705	0.875
11.5103	0.872
11.5502	0.857
11.59	0.842
11.6298	0.801
11.6697	0.695
11.7095	0.4
11.7494	0.443
11.7892	0.592
11.8291	0.509
11.8689	0.562
11.9088	0.69
11.9486	0.791
11.9885	0.802
12.0283	0.695
12.0681	0.408
12.108	0.284
12.1478	0.316
12.1877	0.503
12.2275	0.67
12.2674	0.756
12.3072	0.802
12.3471	0.824
12.3869	0.844
12.4268	0.857
12.4666	0.864
12.5065	0.874
12.5463	0.879
12.5861	0.884
12.626	0.889
12.6658	0.894
12.7057	0.899
12.7455	0.9
12.7854	0.902
12.8252	0.903
12.8651	0.905
12.9049	0.907
12.9448	0.903
12.9846	0.905
13.0244	0.908
13.0643	0.907
13.1041	0.908
13.144	0.91
13.1838	0.908
13.2237	0.897
13.2635	0.903
13.3034	0.908
13.3432	0.907
13.3831	0.87
13.4229	0.836
13.4627	0.85
13.5026	0.872
13.5424	0.877
13.5823	0.884
13.6221	0.88
13.662	0.85
13.7018	0.799
13.7417	0.819
13.7815	0.859
13.8214	0.869
13.8612	0.872
13.9011	0.87
13.9409	0.887
13.9807	0.899
14.0206	0.907
14.0604	0.913
14.1003	0.917
14.1401	0.92
14.18	0.923
14.2198	0.925
14.2597	0.927
14.2995	0.922
14.3394	0.918
14.3792	0.915
14.419	0.913
14.4589	0.912
14.4987	0.91
14.5386	0.907
14.5784	0.899
14.6183	0.895
14.6581	0.887
14.698	0.877
14.7378	0.857
14.7777	0.814
14.8175	0.768
14.8574	0.758
14.8972	0.776
14.937	0.806
14.9769	0.801
15.0167	0.764
15.0566	0.74
15.0964	0.768
15.1363	0.799
15.1761	0.811
15.216	0.798
15.2558	0.784
15.2957	0.766
15.3355	0.759
15.3753	0.746
15.4152	0.735
15.455	0.725
15.4949	0.706
15.5347	0.695
15.5746	0.687
15.6144	0.675
15.6543	0.667
15.6941	0.652
15.734	0.637
15.7738	0.624
15.8137	0.612
15.8535	0.599
15.8933	0.586
15.9332	0.581
15.973	0.567
