Infrared Spectrum: 2-Fluoro-6-methoxybenzonitrile
Formula: C 8 H 6 F N O
CAS: 94088-46-7
State: gas
Origin: EPA-IR VAPOR PHASE LIBRARY
1/CM	ABSORBANCE
549.8	0.002425
559.445	0.0012546
569.09	0.0011207
578.734	0.0009649
588.379	0.0010802
598.024	0.0013189
607.669	0.002215
617.313	0.001945
626.958	0.001705
636.603	0.001905
646.248	0.002725
655.893	0.003345
665.537	0.004865
675.182	0.004685
684.827	0.004125
694.472	0.002655
704.116	0.005325
713.761	0.012955
723.406	0.023295
733.051	0.013665
742.695	0.006425
752.34	0.003995
761.985	0.005945
771.63	0.015305
781.275	0.033155
790.919	0.028865
800.564	0.014705
810.209	0.005495
819.854	0.002645
829.498	0.001575
839.143	0.0014707
848.788	0.001885
858.433	0.0013889
868.078	0.0013344
877.722	0.002015
887.367	0.001735
897.012	0.001675
906.657	0.002225
916.301	0.001605
925.946	0.002625
935.591	0.005225
945.236	0.009295
954.88	0.010605
964.525	0.007955
974.17	0.006415
983.815	0.004855
993.46	0.003715
1003.1	0.003585
1012.75	0.004845
1022.39	0.006415
1032.04	0.010725
1041.68	0.020075
1051.33	0.032805
1060.97	0.044935
1070.62	0.050605
1080.26	0.059275
1089.91	0.091225
1099.55	0.102745
1109.2	0.052785
1118.84	0.010715
1128.49	0.006395
1138.13	0.004555
1147.78	0.003845
1157.42	0.003685
1167.07	0.003055
1176.71	0.003705
1186.36	0.004605
1196	0.002605
1205.64	0.002005
1215.29	0.004985
1224.93	0.008645
1234.58	0.025075
1244.22	0.073265
1253.87	0.094545
1263.51	0.057075
1273.16	0.020025
1282.8	0.026165
1292.45	0.043405
1302.09	0.051965
1311.74	0.037175
1321.38	0.017675
1331.03	0.010485
1340.67	0.007365
1350.32	0.004925
1359.96	0.003975
1369.61	0.003975
1379.25	0.004505
1388.9	0.004925
1398.54	0.005105
1408.18	0.005395
1417.83	0.007905
1427.47	0.017335
1437.12	0.036185
1446.76	0.040665
1456.41	0.041135
1466.05	0.080305
1475.7	0.131165
1485.34	0.106725
1494.99	0.040815
1504.63	0.013945
1514.28	0.010325
1523.92	0.009105
1533.57	0.009865
1543.21	0.013515
1552.86	0.022005
1562.5	0.034865
1572.15	0.048495
1581.79	0.055585
1591.44	0.053075
1601.08	0.063155
1610.73	0.075495
1620.37	0.048045
1630.01	0.014675
1639.66	0.007085
1649.3	0.004525
1658.95	0.003265
1668.59	0.003135
1678.24	0.002845
1687.88	0.002555
1697.53	0.002265
1707.17	0.002455
1716.82	0.002005
1726.46	0.001885
1736.11	0.001885
1745.75	0.002055
1755.4	0.001795
1765.04	0.001545
1774.69	0.001485
1784.33	0.0013101
1793.98	0.0013287
1803.62	0.0014426
1813.27	0.001745
1822.91	0.001875
1832.55	0.001715
1842.2	0.0014568
1851.84	0.001456
1861.49	0.0012971
1871.13	0.0012723
1880.78	0.001625
1890.42	0.001945
1900.07	0.002205
1909.71	0.002925
1919.36	0.003295
1929	0.002645
1938.65	0.001655
1948.29	0.0010375
1957.94	0.0011649
1967.58	0.0012952
1977.23	0.0013504
1986.87	0.0012751
1996.52	0.0013707
2006.16	0.0012783
2015.81	0.001356
2025.45	0.001545
2035.1	0.001715
2044.74	0.001705
2054.38	0.0011864
2064.03	0.000939
2073.67	0.001108
2083.32	0.0011507
2092.96	0.0012183
2102.61	0.0011981
2112.25	0.0010167
2121.9	0.001189
2131.54	0.0011122
2141.19	0.0012401
2150.83	0.001282
2160.48	0.0012847
2170.12	0.0012332
2179.77	0.0013766
2189.41	0.0014725
2199.06	0.0013949
2208.7	0.001555
2218.35	0.002165
2227.99	0.004865
2237.64	0.007225
2247.28	0.006415
2256.92	0.003665
2266.57	0.002295
2276.21	0.001675
2285.86	0.0014594
2295.5	0.0010668
2305.15	0.0008991
2314.79	0.0009479
2324.44	0.0009512
2334.08	0.0009886
2343.73	0.001182
2353.37	0.0010799
2363.02	0.0010894
2372.66	0.0011752
2382.31	0.0012035
2391.95	0.0011179
2401.6	0.0012474
2411.24	0.001328
2420.89	0.0014238
2430.53	0.001485
2440.18	0.0010705
2449.82	0.0008991
2459.47	0.0008873
2469.11	0.0010183
2478.75	0.0007594
2488.4	0.0007902
2498.04	0.0009026
2507.69	0.0009694
2517.33	0.0011977
2526.98	0.001695
2536.62	0.002125
2546.27	0.002435
2555.91	0.002165
2565.56	0.002045
2575.2	0.001475
2584.85	0.001525
2594.49	0.0012777
2604.14	0.0012819
2613.78	0.001331
2623.43	0.0011027
2633.07	0.0013088
2642.72	0.0012174
2652.36	0.0013456
2662.01	0.0011782
2671.65	0.001273
2681.29	0.0012861
2690.94	0.0010659
2700.58	0.0011086
2710.23	0.0011826
2719.87	0.00137
2729.52	0.0011642
2739.16	0.001605
2748.81	0.001545
2758.45	0.001545
2768.1	0.001555
2777.74	0.002055
2787.39	0.001735
2797.03	0.001675
2806.68	0.001665
2816.32	0.002115
2825.97	0.002875
2835.61	0.004595
2845.26	0.008755
2854.9	0.010465
2864.55	0.007625
2874.19	0.005105
2883.84	0.005375
2893.48	0.006035
2903.12	0.007175
2912.77	0.006775
2922.41	0.007245
2932.06	0.008705
2941.7	0.015325
2951.35	0.018615
2960.99	0.016685
2970.64	0.014675
2980.28	0.010765
2989.93	0.007745
2999.57	0.007045
3009.22	0.008545
3018.86	0.011075
3028.51	0.010095
3038.15	0.006065
3047.8	0.004655
3057.44	0.003915
3067.09	0.003755
3076.73	0.004245
3086.38	0.004225
3096.02	0.004415
3105.67	0.003265
3115.31	0.002125
3124.95	0.001535
3134.6	0.0013092
3144.24	0.0014183
3153.89	0.0010765
3163.53	0.0008602
3173.18	0.0010032
3182.82	0.0010985
3192.47	0.000715
3202.11	0.0008269
3211.76	0.0010982
3221.4	0.0006159
3231.05	0.0008487
3240.69	0.000793
3250.34	0.0006422
3259.98	0.00049541
3269.63	0.0004134
3279.27	0.00051224
3288.92	0.000255
3298.56	0.0005968
3308.21	0.00053101
3317.85	0.00053019
3327.49	0.0006827
3337.14	0.000291
3346.78	0.00053044
3356.43	0.000218
3366.07	0.00055355
3375.72	0.00056075
3385.36	0.000484477
3395.01	0.0009199
3404.65	0.0007543
3414.3	0.0006618
3423.94	0.0011107
3433.59	0.0007115
3443.23	0.00056438
3452.88	0.00050128
3462.52	0.000298
3472.17	0.0003885
3481.81	0.0006038
3491.46	0.0007601
3501.1	0.00055947
3510.75	0.0006733
3520.39	0.000305
3530.04	0.00046536
3539.68	0.000289
3549.32	0.000352
3558.97	0.000458
3568.61	0.000174
3578.26	0.0006728
3587.9	0.00049247
3597.55	0.0004332
3607.19	0.00048624
3616.84	0.0004601
3626.48	0.0008294
3636.13	0.000347
3645.77	0.0008355
3655.42	0.00050154
3665.06	0.0003832
3674.71	0.00050364
3684.35	0.000363
3694	0.00034
3703.64	0.0007507
3713.29	0.0003888
3722.93	0.00053636
3732.58	0.000264
3742.22	0.000139
3751.86	0.000291
3761.51	0.0004495
3771.15	0.000437
3780.8	0.000387
3790.44	0.0004623
3800.09	0.00056578
3809.73	0.0004124
3819.38	0.0006678
3829.02	0.0006706
3838.67	0.0008204
3848.31	0.0005936
3857.96	0.0006443
3867.6	0.000732
3877.25	0.0008777
3886.89	0.0009241
3896.54	0.00086
3906.18	0.00026
3915.83	0.0009731
3925.47	0.0004024
3935.12	0.0008394
3944.76	0.000327
3954.41	0.00023
3964.05	0.000908
3973.69	0.0006217
3983.34	0.0003783
3992.98	0.0007191
