Infrared Spectrum: 3-Chloro-2-fluorobenzonitrile
Formula: C 7 H 3 Cl F N
CAS: 94087-40-8
State: gas
Origin: EPA-IR VAPOR PHASE LIBRARY
1/CM	ABSORBANCE
549.8	0.0011339
559.445	0.001587
569.09	0.004477
578.734	0.003527
588.379	0.002957
598.024	0.002397
607.669	0.002097
617.313	0.003867
626.958	0.008797
636.603	0.007387
646.248	0.002517
655.893	0.002407
665.537	0.001577
675.182	0.0013462
684.827	0.001727
694.472	0.002047
704.116	0.005957
713.761	0.014687
723.406	0.025877
733.051	0.013817
742.695	0.005597
752.34	0.003027
761.985	0.006547
771.63	0.019757
781.275	0.045707
790.919	0.025227
800.564	0.011227
810.209	0.005877
819.854	0.008917
829.498	0.013207
839.143	0.013277
848.788	0.018477
858.433	0.037677
868.078	0.030617
877.722	0.008827
887.367	0.005847
897.012	0.002637
906.657	0.002577
916.301	0.0013494
925.946	0.0014342
935.591	0.001083
945.236	0.001937
954.88	0.003357
964.525	0.004037
974.17	0.002747
983.815	0.002087
993.46	0.001737
1003.1	0.001897
1012.75	0.002017
1022.39	0.001737
1032.04	0.003127
1041.68	0.003237
1051.33	0.006077
1060.97	0.007357
1070.62	0.006997
1080.26	0.004807
1089.91	0.003757
1099.55	0.002717
1109.2	0.002627
1118.84	0.002337
1128.49	0.002427
1138.13	0.006287
1147.78	0.018497
1157.42	0.015727
1167.07	0.006117
1176.71	0.007047
1186.36	0.007557
1196	0.004347
1205.64	0.003607
1215.29	0.004167
1224.93	0.005977
1234.58	0.009597
1244.22	0.019787
1253.87	0.037947
1263.51	0.038697
1273.16	0.013327
1282.8	0.003907
1292.45	0.001747
1302.09	0.002157
1311.74	0.002747
1321.38	0.002397
1331.03	0.001597
1340.67	0.0015081
1350.32	0.0014539
1359.96	0.0014712
1369.61	0.001807
1379.25	0.001897
1388.9	0.001527
1398.54	0.001857
1408.18	0.002117
1417.83	0.003047
1427.47	0.005727
1437.12	0.016287
1446.76	0.047117
1456.41	0.080997
1466.05	0.100377
1475.7	0.073227
1485.34	0.031547
1494.99	0.010427
1504.63	0.006087
1514.28	0.003597
1523.92	0.002537
1533.57	0.002657
1543.21	0.002877
1552.86	0.004837
1562.5	0.008407
1572.15	0.009647
1581.79	0.006337
1591.44	0.005867
1601.08	0.007587
1610.73	0.005797
1620.37	0.003387
1630.01	0.001847
1639.66	0.001547
1649.3	0.001627
1658.95	0.001557
1668.59	0.001767
1678.24	0.003137
1687.88	0.003987
1697.53	0.002547
1707.17	0.0014643
1716.82	0.0009681
1726.46	0.0013477
1736.11	0.0013384
1745.75	0.0012638
1755.4	0.0011363
1765.04	0.0010216
1774.69	0.0011711
1784.33	0.0011918
1793.98	0.0014897
1803.62	0.002297
1813.27	0.002377
1822.91	0.001977
1832.55	0.0013859
1842.2	0.0012925
1851.84	0.001747
1861.49	0.002727
1871.13	0.003747
1880.78	0.002757
1890.42	0.001657
1900.07	0.001817
1909.71	0.0014972
1919.36	0.002007
1929	0.002627
1938.65	0.002337
1948.29	0.0013999
1957.94	0.0011845
1967.58	0.000958
1977.23	0.0011577
1986.87	0.0011746
1996.52	0.0012002
2006.16	0.0009703
2015.81	0.001429
2025.45	0.0012872
2035.1	0.0012145
2044.74	0.0011368
2054.38	0.0013241
2064.03	0.00117
2073.67	0.0012839
2083.32	0.0013475
2092.96	0.0013853
2102.61	0.0011962
2112.25	0.0011778
2121.9	0.001184
2131.54	0.0011172
2141.19	0.0013389
2150.83	0.0011502
2160.48	0.0011297
2170.12	0.0010502
2179.77	0.0010762
2189.41	0.0012071
2199.06	0.0011619
2208.7	0.0011176
2218.35	0.0013623
2227.99	0.002137
2237.64	0.003637
2247.28	0.003747
2256.92	0.001597
2266.57	0.0012472
2276.21	0.0011453
2285.86	0.001637
2295.5	0.001647
2305.15	0.001547
2314.79	0.0013577
2324.44	0.0013379
2334.08	0.0012012
2343.73	0.0011495
2353.37	0.0010942
2363.02	0.0011837
2372.66	0.0010822
2382.31	0.0012395
2391.95	0.00117
2401.6	0.0012856
2411.24	0.0011483
2420.89	0.001527
2430.53	0.001717
2440.18	0.0011695
2449.82	0.0010568
2459.47	0.0013417
2469.11	0.0009771
2478.75	0.00125
2488.4	0.001517
2498.04	0.001687
2507.69	0.001757
2517.33	0.0013482
2526.98	0.0014621
2536.62	0.0014931
2546.27	0.0013705
2555.91	0.001597
2565.56	0.0013997
2575.2	0.0012008
2584.85	0.0011203
2594.49	0.0009136
2604.14	0.0009634
2613.78	0.0010579
2623.43	0.0011138
2633.07	0.0010155
2642.72	0.0012251
2652.36	0.0009624
2662.01	0.0010263
2671.65	0.0007749
2681.29	0.0010496
2690.94	0.0008615
2700.58	0.0011465
2710.23	0.001607
2719.87	0.001567
2729.52	0.0011792
2739.16	0.0013375
2748.81	0.0015075
2758.45	0.001173
2768.1	0.0008749
2777.74	0.0012457
2787.39	0.0011086
2797.03	0.0010478
2806.68	0.0010812
2816.32	0.00101
2825.97	0.0010292
2835.61	0.001547
2845.26	0.000928
2854.9	0.0010489
2864.55	0.0011876
2874.19	0.0014993
2883.84	0.001097
2893.48	0.0010463
2903.12	0.0010645
2912.77	0.000938
2922.41	0.001577
2932.06	0.0009943
2941.7	0.0010833
2951.35	0.0010311
2960.99	0.00057498
2970.64	0.0008834
2980.28	0.0011673
2989.93	0.0006945
2999.57	0.0008773
3009.22	0.0008962
3018.86	0.0012373
3028.51	0.001577
3038.15	0.001527
3047.8	0.0013991
3057.44	0.0010139
3067.09	0.001597
3076.73	0.002307
3086.38	0.003747
3096.02	0.004067
3105.67	0.001567
3115.31	0.0012796
3124.95	0.0011044
3134.6	0.001308
3144.24	0.000747
3153.89	0.0012859
3163.53	0.0008677
3173.18	0.0007669
3182.82	0.0009774
3192.47	0.0006797
3202.11	0.0014383
3211.76	0.0004182
3221.4	0.0005868
3231.05	0.0004734
3240.69	0.0013434
3250.34	0.001527
3259.98	0.0009855
3269.63	0.0012266
3279.27	0.0007281
3288.92	0.0006646
3298.56	0.0009962
3308.21	0.0010775
3317.85	0.0012478
3327.49	0.0008001
3337.14	0.0006248
3346.78	0.0008845
3356.43	0.0009921
3366.07	0.0008996
3375.72	0.0010687
3385.36	0.0006953
3395.01	0.0010505
3404.65	0.0009702
3414.3	0.0007534
3423.94	0.0010413
3433.59	0.0011414
3443.23	0.00055056
3452.88	0.00055226
3462.52	0.0008217
3472.17	0.0006442
3481.81	0.0011499
3491.46	0.0010184
3501.1	0.0009481
3510.75	0.0012045
3520.39	0.0008486
3530.04	0.0009692
3539.68	0.0005932
3549.32	0.0011388
3558.97	0.0007523
3568.61	0.0008737
3578.26	0.0013867
3587.9	0.0009288
3597.55	0.0009781
3607.19	0.0012853
3616.84	0.0007519
3626.48	0.0009852
3636.13	0.0011222
3645.77	0.0007709
3655.42	0.000938
3665.06	0.0009911
3674.71	0.0010144
3684.35	0.0007972
3694	0.000934
3703.64	0.000838
3713.29	0.0012462
3722.93	0.0010023
3732.58	0.001557
3742.22	0.0011605
3751.86	0.0013223
3761.51	0.0010666
3771.15	0.0010711
3780.8	0.0011766
3790.44	0.0010569
3800.09	0.0011433
3809.73	0.0013184
3819.38	0.001226
3829.02	0.0007104
3838.67	0.0012824
3848.31	0.0004624
3857.96	0.0007536
3867.6	0.0007879
3877.25	0.0010111
3886.89	0.00061648
3896.54	0.0011495
3906.18	0.00055666
3915.83	0.0012032
3925.47	0.001637
3935.12	0.001163
3944.76	0.0012443
3954.41	0.0009065
3964.05	0.0007143
3973.69	0.0008729
3983.34	0.00058025
3992.98	0
