Infrared Spectrum: 2-PROPIONIC ACID, 2-METHYL-1,3-DIOXOLANE-, ETHYL ESTER
Formula: C9 H16 O4
CAS: 941-43-5
State: SOLUTION (10% CCl4 FOR 3800-1330, 10% CS2 FOR 1330-440 CM^-^1) VS SOLVENT
Class: COBLENTZ III
Instrument: DOW KBr FOREPRISM-GRATING
Instrument parameters: BLAZED AT 3.5, 12.0, 20.0 MICRON AND CHANGED AT 5.0, 7.5, 14.9 MICRON
Sampling: TRANSMISSION
Path length: 0.012 CM, 0.011 CM
Resolution: 2
Origin: DOW CHEMICAL COMPANY
1/CM	TRANSMITTANCE
458	0.8122
467	0.8068
476	0.8022
485	0.8053
494	0.8316
503	0.8418
512	0.8133
521	0.7746
530	0.8289
539	0.8541
548	0.8265
557	0.7905
566	0.8462
575	0.8566
584	0.8656
593	0.8744
602	0.8836
611	0.8938
620	0.8848
629	0.8839
638	0.836
647	0.8393
656	0.8696
665	0.8933
674	0.9006
683	0.8938
692	0.896
701	0.8997
710	0.9033
719	0.907
728	0.9112
737	0.9139
746	0.9097
755	0.8952
764	0.8735
773	0.8621
782	0.8132
791	0.8467
800	0.847
809	0.838
818	0.8541
827	0.7878
836	0.7811
845	0.7574
854	0.5883
863	0.262
872	0.3534
881	0.6174
890	0.6799
899	0.7669
908	0.7948
917	0.7991
926	0.7838
935	0.7443
944	0.4856
953	0.7541
962	0.7983
971	0.8277
980	0.8362
989	0.8206
998	0.8175
1007	0.7571
1016	0.5627
1025	0.2942
1034	0.2492
1043	0.0934
1052	0.0688
1061	0.1216
1070	0.2838
1079	0.4792
1088	0.4452
1097	0.1364
1106	0.2177
1115	0.2634
1124	0.1668
1133	0.0901
1142	0.111
1151	0.2031
1160	0.1469
1169	0.1212
1178	0.0637
1187	0.1089
1196	0.1999
1205	0.2039
1214	0.2021
1223	0.201
1232	0.2107
1241	0.1885
1250	0.169
1259	0.1575
1268	0.1951
1277	0.2691
1286	0.2754
1295	0.2347
1304	0.2173
1313	0.2925
1322	0.581
1331	0.5665
1340	0.5138
1349	0.4424
1358	0.5854
1367	0.3264
1376	0.1126
1385	0.4494
1394	0.5332
1403	0.6907
1412	0.6747
1421	0.5986
1430	0.566
1439	0.4544
1448	0.4048
1457	0.6032
1466	0.5841
1475	0.5958
1484	0.7165
1493	0.8652
1502	0.9073
1511	0.9342
1520	0.9505
1529	0.9646
1538	0.9861
1547	0.9912
1556	0.976
1565	0.9616
1574	0.9514
1583	0.9415
1592	0.9336
1601	0.9294
1610	0.9253
1619	0.9178
1628	0.9102
1637	0.9027
1646	0.8954
1655	0.8873
1664	0.8768
1673	0.8545
1682	0.8058
1691	0.7378
1700	0.6743
1709	0.5756
1718	0.2855
1727	0.0456
1736	0.0002
1745	0.0079
1754	0.3088
1763	0.624
1772	0.769
1781	0.8278
1790	0.8601
1799	0.8766
1808	0.8821
1817	0.9044
1826	0.9213
1835	0.9344
1844	0.9478
1853	0.9539
1862	0.9518
1871	0.948
1880	0.9427
1889	0.94
1898	0.9406
1907	0.9431
1916	0.9455
1925	0.9484
1934	0.9514
1943	0.9492
1952	0.9542
1961	0.9558
1970	0.9567
1979	0.9568
1988	0.9566
1997	0.9554
2006	0.9542
2015	0.9525
2024	0.9509
2033	0.9518
2042	0.9562
2051	0.9595
2060	0.9574
2069	0.9531
2078	0.9543
2087	0.9563
2096	0.9584
2105	0.9605
2114	0.9625
2123	0.9651
2132	0.9681
2141	0.97
2150	0.9713
2159	0.9724
2168	0.973
2177	0.9733
2186	0.9735
2195	0.9735
2204	0.9734
2213	0.9732
2222	0.9732
2231	0.973
2240	0.9727
2249	0.9724
2258	0.9724
2267	0.9715
2276	0.9665
2285	0.9667
2294	0.97
2303	0.9714
2312	0.9706
2321	0.969
2330	0.9665
2339	0.9632
2348	0.96
2357	0.9568
2366	0.9548
2375	0.9535
2384	0.9521
2393	0.9521
2402	0.9521
2411	0.9535
2420	0.9549
2429	0.9595
2438	0.9636
2447	0.9628
2456	0.9601
2465	0.9571
2474	0.9549
2483	0.9536
2492	0.9525
2501	0.9511
2510	0.9499
2519	0.9485
2528	0.947
2537	0.9454
2546	0.9439
2555	0.943
2564	0.9427
2573	0.9421
2582	0.9417
2591	0.9409
2600	0.9384
2609	0.9358
2618	0.9328
2627	0.9295
2636	0.9246
2645	0.918
2654	0.9073
2663	0.8946
2672	0.8936
2681	0.902
2690	0.912
2699	0.919
2708	0.919
2717	0.9159
2726	0.912
2735	0.9083
2744	0.9049
2753	0.9015
2762	0.8981
2771	0.8946
2780	0.8899
2789	0.8838
2798	0.8725
2807	0.8562
2816	0.838
2825	0.8187
2834	0.7921
2843	0.7515
2852	0.696
2861	0.5949
2870	0.4469
2879	0.241
2888	0.2582
2897	0.3306
2906	0.4579
2915	0.4632
2924	0.4366
2933	0.2835
2942	0.2815
2951	0.2607
2960	0.2476
2969	0.2349
2978	0.0889
2987	0.0645
2996	0.2527
3005	0.6406
3014	0.7101
3023	0.8035
3032	0.8417
3041	0.8575
3050	0.8684
3059	0.8741
3068	0.8767
3077	0.8786
3086	0.8805
3095	0.8825
3104	0.8849
3113	0.8862
3122	0.8847
3131	0.8809
3140	0.8801
3149	0.8821
3158	0.8895
3167	0.8971
3176	0.8995
3185	0.9006
3194	0.9011
3203	0.901
3212	0.9009
3221	0.9028
3230	0.9063
3239	0.9094
3248	0.9089
3257	0.9083
3266	0.9075
3275	0.9065
3284	0.9055
3293	0.9044
3302	0.9033
3311	0.9024
3320	0.9018
3329	0.9012
3338	0.9002
3347	0.8994
3356	0.8987
3365	0.8988
3374	0.8993
3383	0.9
3392	0.9018
3401	0.9033
3410	0.9004
3419	0.8925
3428	0.8835
3437	0.8762
3446	0.8709
3455	0.8713
3464	0.8852
3473	0.9002
3482	0.9081
3491	0.9094
3500	0.9099
3509	0.9102
3518	0.9105
3527	0.9111
3536	0.9121
3545	0.9146
3554	0.9217
3563	0.9308
3572	0.9386
3581	0.9431
3590	0.9454
3599	0.9468
3608	0.9489
3617	0.9517
3626	0.9543
3635	0.957
3644	0.9598
3653	0.9608
3662	0.9593
3671	0.946
3680	0.9448
3689	0.9543
3698	0.9665
3707	0.969
3716	0.9697
3725	0.969
3734	0.9678
3743	0.9668
3752	0.9663
3761	0.9656
3770	0.9653
3779	0.9661
3788	0.9674
3797	0.9659
