Infrared Spectrum: 4,6,8-TRIMETHYLAZULENE
Formula: C13 H14
CAS: 941-81-1
State: SOLID (KBr PELLET)
Melting point: 81-82 C
Class: COBLENTZ
Instrument: Not specified, most likely a prism, grating, or hybrid spectrometer.
Sampling: TRANSMISSION
Resolution: 4
Origin: UNION CARBIDE CORPORATION (CARBON PRODUCTS DIVISION)
MICROMETERS	TRANSMITTANCE
2.02	0.214
2.0533	0.222
2.0866	0.226
2.1199	0.229
2.15319	0.23
2.18649	0.236
2.21979	0.242
2.25309	0.248
2.28639	0.254
2.31969	0.257
2.35298	0.26
2.38628	0.265
2.41958	0.269
2.45288	0.269
2.48618	0.272
2.51948	0.281
2.55278	0.281
2.58607	0.284
2.61937	0.284
2.65267	0.286
2.68597	0.29
2.71927	0.293
2.75257	0.296
2.78586	0.3
2.81916	0.305
2.85246	0.306
2.88576	0.31
2.91906	0.313
2.95236	0.318
2.98566	0.332
3.01895	0.341
3.05225	0.348
3.08555	0.352
3.11885	0.361
3.15215	0.369
3.18545	0.378
3.21874	0.382
3.25204	0.381
3.28534	0.381
3.31864	0.381
3.35194	0.374
3.38524	0.365
3.41854	0.358
3.45183	0.356
3.48513	0.358
3.51843	0.361
3.55173	0.372
3.58503	0.376
3.61833	0.386
3.65163	0.394
3.68492	0.4
3.71822	0.402
3.75152	0.414
3.78482	0.42
3.81812	0.422
3.85142	0.432
3.88471	0.438
3.91801	0.442
3.95131	0.442
3.98461	0.446
4.01791	0.452
4.05121	0.457
4.08451	0.458
4.1178	0.472
4.1511	0.474
4.1844	0.474
4.2177	0.476
4.251	0.474
4.2843	0.476
4.31759	0.477
4.35089	0.485
4.38419	0.493
4.41749	0.498
4.45079	0.502
4.48409	0.516
4.51739	0.518
4.55068	0.518
4.58398	0.521
4.61728	0.521
4.65058	0.53
4.68388	0.542
4.71718	0.545
4.75047	0.548
4.78377	0.552
4.81707	0.552
4.85037	0.554
4.88367	0.562
4.91697	0.569
4.95027	0.574
4.98356	0.578
5.01686	0.584
5.05016	0.586
5.08346	0.59
5.11676	0.601
5.15006	0.604
5.18335	0.606
5.21665	0.608
5.24995	0.609
5.28325	0.608
5.31655	0.61
5.34985	0.617
5.38315	0.617
5.41644	0.629
5.44974	0.637
5.48304	0.644
5.51634	0.646
5.54964	0.62
5.58294	0.622
5.61623	0.636
5.64953	0.64
5.68283	0.649
5.71613	0.662
5.74943	0.668
5.78273	0.67
5.81603	0.673
5.84932	0.67
5.88262	0.67
5.91592	0.684
5.94922	0.701
5.98252	0.712
6.01582	0.72
6.04911	0.744
6.08241	0.742
6.11571	0.749
6.14901	0.75
6.18231	0.742
6.21561	0.733
6.24891	0.726
6.2822	0.541
6.3155	0.242
6.3488	0.32
6.3821	0.362
6.4154	0.46
6.4487	0.39
6.48199	0.394
6.51529	0.438
6.54859	0.466
6.58189	0.526
6.61519	0.533
6.64849	0.56
6.68179	0.558
6.71508	0.417
6.74838	0.517
6.78168	0.564
6.81498	0.585
6.84828	0.586
6.88158	0.56
6.91488	0.502
6.94817	0.36
6.98147	0.249
7.01477	0.238
7.04807	0.36
7.08137	0.425
7.11467	0.49
7.14796	0.545
7.18126	0.59
7.21456	0.64
7.24786	0.46
7.28116	0.397
7.31446	0.424
7.34776	0.51
7.38105	0.564
7.41435	0.592
7.44765	0.561
7.48095	0.366
7.51425	0.293
7.54755	0.421
7.58084	0.505
7.61414	0.56
7.64744	0.585
7.68074	0.606
7.71404	0.622
7.74734	0.64
7.78064	0.642
7.81393	0.592
7.84723	0.53
7.88053	0.586
7.91383	0.63
7.94713	0.65
7.98043	0.66
8.01372	0.668
8.04702	0.673
8.08032	0.681
8.11362	0.672
8.14692	0.657
8.18022	0.57
8.21352	0.45
8.24681	0.492
8.28011	0.581
8.31341	0.633
8.34671	0.657
8.38001	0.662
8.41331	0.65
8.4466	0.669
8.4799	0.682
8.5132	0.694
8.5465	0.7
8.5798	0.706
8.6131	0.714
8.6464	0.72
8.67969	0.722
8.71299	0.73
8.74629	0.734
8.77959	0.738
8.81289	0.741
8.84619	0.749
8.87948	0.756
8.91278	0.761
8.94608	0.756
8.97938	0.729
9.01268	0.738
9.04598	0.741
9.07928	0.746
9.11257	0.762
9.14587	0.77
9.17917	0.782
9.21247	0.773
9.24577	0.63
9.27907	0.49
9.31236	0.574
9.34566	0.653
9.37896	0.69
9.41226	0.7
9.44556	0.696
9.47886	0.696
9.51216	0.7
9.54545	0.708
9.57875	0.718
9.61205	0.718
9.64535	0.704
9.67865	0.689
9.71195	0.65
9.74524	0.597
9.77854	0.581
9.81184	0.578
9.84514	0.592
9.87844	0.621
9.91174	0.632
9.94504	0.637
9.97833	0.633
10.0116	0.621
10.0449	0.622
10.0782	0.634
10.1115	0.654
10.1448	0.673
10.1781	0.696
10.2114	0.714
10.2447	0.726
10.278	0.733
10.3113	0.741
10.3446	0.746
10.3779	0.752
10.4112	0.76
10.4445	0.766
10.4778	0.77
10.5111	0.777
10.5444	0.781
10.5777	0.784
10.611	0.784
10.6443	0.784
10.6776	0.782
10.7109	0.785
10.7442	0.793
10.7775	0.794
10.8108	0.798
10.8441	0.802
10.8774	0.805
10.9107	0.809
10.944	0.812
10.9773	0.812
11.0106	0.814
11.0439	0.813
11.0772	0.814
11.1105	0.812
11.1438	0.81
11.1771	0.801
11.2104	0.801
11.2437	0.8
11.277	0.781
11.3103	0.762
11.3436	0.762
11.3769	0.774
11.4102	0.792
11.4435	0.802
11.4768	0.808
11.5101	0.818
11.5434	0.825
11.5767	0.834
11.61	0.834
11.6433	0.834
11.6766	0.836
11.7099	0.824
11.7432	0.705
11.7765	0.45
11.8098	0.321
11.843	0.357
11.8763	0.45
11.9096	0.569
11.9429	0.582
11.9762	0.614
12.0095	0.689
12.0428	0.729
12.0761	0.75
12.1094	0.773
12.1427	0.785
12.176	0.793
12.2093	0.801
12.2426	0.808
12.2759	0.816
12.3092	0.818
12.3425	0.825
12.3758	0.832
12.4091	0.832
12.4424	0.833
12.4757	0.833
12.509	0.833
12.5423	0.825
12.5756	0.817
12.6089	0.825
12.6422	0.841
12.6755	0.85
12.7088	0.857
12.7421	0.86
12.7754	0.862
12.8087	0.864
12.842	0.862
12.8753	0.864
12.9086	0.865
12.9419	0.866
12.9752	0.869
13.0085	0.87
13.0418	0.87
13.0751	0.865
13.1084	0.86
13.1417	0.838
13.175	0.802
13.2083	0.706
13.2416	0.584
13.2749	0.44
13.3082	0.276
13.3415	0.156
13.3748	0.1
13.4081	0.085
13.4414	0.082
13.4747	0.11
13.508	0.189
13.5413	0.273
13.5746	0.344
13.6079	0.422
13.6412	0.469
13.6745	0.508
13.7078	0.548
13.7411	0.569
13.7744	0.586
13.8077	0.608
13.841	0.621
13.8743	0.633
13.9076	0.638
13.9409	0.641
13.9742	0.628
14.0074	0.594
14.0407	0.6
14.074	0.629
14.1073	0.642
14.1406	0.654
14.1739	0.669
14.2072	0.678
14.2405	0.69
14.2738	0.694
14.3071	0.697
14.3404	0.7
14.3737	0.702
14.407	0.705
14.4403	0.706
14.4736	0.709
14.5069	0.709
14.5402	0.709
14.5735	0.71
14.6068	0.709
14.6401	0.709
14.6734	0.708
14.7067	0.708
14.74	0.708
14.7733	0.706
14.8066	0.704
14.8399	0.702
14.8732	0.701
14.9065	0.701
14.9398	0.69
14.9731	0.654
15.0064	0.63
15.0397	0.678
15.073	0.7
