Infrared Spectrum: N-Phenylmaleimide
Formula: C 10 H 7 N O 2
CAS: 941-69-5
State: gas
Origin: EPA-IR VAPOR PHASE LIBRARY
1/CM	ABSORBANCE
549.8	0.0005811
559.445	0.0009631
569.09	0.002229
578.734	0.005449
588.379	0.004489
598.024	0.001599
607.669	0.002239
617.313	0.010009
626.958	0.012349
636.603	0.003669
646.248	0.002419
655.893	0.003429
665.537	0.005229
675.182	0.010069
684.827	0.020629
694.472	0.040019
704.116	0.041379
713.761	0.017469
723.406	0.005429
733.051	0.004099
742.695	0.006089
752.34	0.009109
761.985	0.005059
771.63	0.002719
781.275	0.001809
790.919	0.001419
800.564	0.001719
810.209	0.007179
819.854	0.023659
829.498	0.035859
839.143	0.015009
848.788	0.003689
858.433	0.002509
868.078	0.002009
877.722	0.001509
887.367	0.001399
897.012	0.002199
906.657	0.002019
916.301	0.001399
925.946	0.001249
935.591	0.003349
945.236	0.005959
954.88	0.002499
964.525	0.0011093
974.17	0.001
983.815	0.001359
993.46	0.001659
1003.1	0.002849
1012.75	0.004009
1022.39	0.005219
1032.04	0.004399
1041.68	0.002869
1051.33	0.005579
1060.97	0.007499
1070.62	0.003549
1080.26	0.003279
1089.91	0.005069
1099.55	0.006659
1109.2	0.007399
1118.84	0.011479
1128.49	0.023489
1138.13	0.041059
1147.78	0.042779
1157.42	0.025749
1167.07	0.012859
1176.71	0.006539
1186.36	0.004989
1196	0.009079
1205.64	0.008719
1215.29	0.004249
1224.93	0.002929
1234.58	0.002669
1244.22	0.002309
1253.87	0.002139
1263.51	0.002509
1273.16	0.003449
1282.8	0.003759
1292.45	0.003119
1302.09	0.003629
1311.74	0.005079
1321.38	0.007359
1331.03	0.009959
1340.67	0.012149
1350.32	0.020549
1359.96	0.048589
1369.61	0.103509
1379.25	0.130969
1388.9	0.087489
1398.54	0.047529
1408.18	0.026129
1417.83	0.010219
1427.47	0.005689
1437.12	0.004809
1446.76	0.006279
1456.41	0.007289
1466.05	0.008509
1475.7	0.009159
1485.34	0.010659
1494.99	0.033899
1504.63	0.053779
1514.28	0.022969
1523.92	0.005549
1533.57	0.002859
1543.21	0.002189
1552.86	0.002119
1562.5	0.002559
1572.15	0.003839
1581.79	0.007359
1591.44	0.014719
1601.08	0.017029
1610.73	0.007049
1620.37	0.003259
1630.01	0.003319
1639.66	0.004029
1649.3	0.004989
1658.95	0.005149
1668.59	0.004039
1678.24	0.003909
1687.88	0.005919
1697.53	0.010599
1707.17	0.021439
1716.82	0.053289
1726.46	0.146539
1736.11	0.254639
1745.75	0.205009
1755.4	0.067609
1765.04	0.031219
1774.69	0.016469
1784.33	0.007659
1793.98	0.003779
1803.62	0.002559
1813.27	0.001979
1822.91	0.001839
1832.55	0.002039
1842.2	0.002529
1851.84	0.002899
1861.49	0.002979
1871.13	0.002859
1880.78	0.003359
1890.42	0.003679
1900.07	0.002969
1909.71	0.002129
1919.36	0.001889
1929	0.002059
1938.65	0.002139
1948.29	0.002059
1957.94	0.002189
1967.58	0.001709
1977.23	0.0011047
1986.87	0.0009117
1996.52	0.0009453
2006.16	0.0008484
2015.81	0.0007369
2025.45	0.0006973
2035.1	0.0007401
2044.74	0.0008432
2054.38	0.0010887
2064.03	0.0011462
2073.67	0.001269
2083.32	0.001369
2092.96	0.0012031
2102.61	0.0008804
2112.25	0.0009278
2121.9	0.0009843
2131.54	0.0007485
2141.19	0.00065
2150.83	0.0007219
2160.48	0.0006825
2170.12	0.0006718
2179.77	0.0005406
2189.41	0.0004316
2199.06	0.0005476
2208.7	0.0004975
2218.35	0.0005037
2227.99	0.0005462
2237.64	0.0005456
2247.28	0.0006628
2256.92	0.0006988
2266.57	0.0005961
2276.21	0.0007925
2285.86	0.0007594
2295.5	0.0005274
2305.15	0.0006451
2314.79	0.0007715
2324.44	0.0009596
2334.08	0.0010789
2343.73	0.0010371
2353.37	0.0009699
2363.02	0.0007997
2372.66	0.0006968
2382.31	0.0005447
2391.95	0.0004987
2401.6	0.0006499
2411.24	0.0004319
2420.89	0.0004752
2430.53	0.0005541
2440.18	0.0005493
2449.82	0.0005848
2459.47	0.0005895
2469.11	0.0006025
2478.75	0.0005972
2488.4	0.0006862
2498.04	0.0007786
2507.69	0.0007811
2517.33	0.0009688
2526.98	0.0010184
2536.62	0.0008192
2546.27	0.0006734
2555.91	0.0005331
2565.56	0.0005728
2575.2	0.0005692
2584.85	0.0006472
2594.49	0.0003493
2604.14	0.0004133
2613.78	0.0004021
2623.43	0.00032681
2633.07	0.0003918
2642.72	0.0002871
2652.36	0.0001643
2662.01	0.00027528
2671.65	0.00022404
2681.29	0.0001564
2690.94	0.0001948
2700.58	0.0001444
2710.23	0.0003449
2719.87	0.00024729
2729.52	0.00027626
2739.16	0.00028268
2748.81	0.00027684
2758.45	0.00029005
2768.1	0.00022657
2777.74	0.0003534
2787.39	0.0003988
2797.03	0.00025084
2806.68	0.0003209
2816.32	0.0002106
2825.97	0.0001953
2835.61	0.0003351
2845.26	0.0004192
2854.9	0.0003455
2864.55	0.0001602
2874.19	0.0003576
2883.84	0.0004149
2893.48	0.0004255
2903.12	0.00027747
2912.77	0.0005758
2922.41	0.0003719
2932.06	0.0003694
2941.7	0.000359
2951.35	0.0005266
2960.99	0.00032694
2970.64	0.00032405
2980.28	0.0004843
2989.93	0.0004235
2999.57	0.00045
3009.22	0.0007363
3018.86	0.0010999
3028.51	0.002399
3038.15	0.004479
3047.8	0.006629
3057.44	0.007529
3067.09	0.008129
3076.73	0.009879
3086.38	0.007189
3096.02	0.004239
3105.67	0.003559
3115.31	0.002699
3124.95	0.001359
3134.6	0.0008565
3144.24	0.0007105
3153.89	0.0004324
3163.53	0.0007358
3173.18	0.0005075
3182.82	0.000618
3192.47	0.0003518
3202.11	0.000235153
3211.76	0.0001901
3221.4	0.00029601
3231.05	0.0003349
3240.69	0.0004068
3250.34	0.0002931
3259.98	0.0004911
3269.63	0.0004625
3279.27	0.0002723
3288.92	0.00030431
3298.56	0.00032057
3308.21	0.0002439
3317.85	0.0003977
3327.49	0.00026691
3337.14	0.000372
3346.78	0.0004397
3356.43	0.00025205
3366.07	0.0004503
3375.72	0.0005714
3385.36	0.0003979
3395.01	0.000621
3404.65	0.0004981
3414.3	0.0004447
3423.94	0.00026317
3433.59	0.0003902
3443.23	0.0006273
3452.88	0.0007057
3462.52	0.0007921
3472.17	0.001459
3481.81	0.001869
3491.46	0.003019
3501.1	0.003919
3510.75	0.003519
3520.39	0.002269
3530.04	0.001299
3539.68	0.0008545
3549.32	0.0008471
3558.97	0.0006323
3568.61	0.0005651
3578.26	0.0004731
3587.9	0.0005405
3597.55	0.000488
3607.19	0.0004441
3616.84	0.0005746
3626.48	0.0004522
3636.13	0.00037
3645.77	0.0005889
3655.42	0.0006455
3665.06	0.0004995
3674.71	0.0004661
3684.35	0.000781
3694	0.0003858
3703.64	0.0005392
3713.29	0.0006428
3722.93	0.0005555
3732.58	0.0004217
3742.22	0.0006561
3751.86	0.0006087
3761.51	0.0003976
3771.15	0.0003764
3780.8	0.0006361
3790.44	0.0006627
3800.09	0.00075
3809.73	0.0006604
3819.38	0.0005507
3829.02	0.0005737
3838.67	0.0005314
3848.31	0.00025828
3857.96	0.0004085
3867.6	0.0004143
3877.25	0.0003926
3886.89	0.00028732
3896.54	0.0004505
3906.18	0.00032748
3915.83	0.0005715
3925.47	0.0005276
3935.12	0.0003523
3944.76	0.0005776
3954.41	0.0004199
3964.05	0.0006585
3973.69	0.0003329
3983.34	0.00032027
3992.98	0.0005298
