Infrared Spectrum: 4-(Trifluoromethoxy)benzenesulphonyl chloride
Formula: C 7 H 4 Cl F 3 O 3 S
CAS: 94108-56-2
State: gas
Origin: EPA-IR VAPOR PHASE LIBRARY
1/CM	ABSORBANCE
549.8	0.017755
559.445	0.040825
569.09	0.073315
578.734	0.086855
588.379	0.157235
598.024	0.129755
607.669	0.044295
617.313	0.015875
626.958	0.008405
636.603	0.007235
646.248	0.007975
655.893	0.011845
665.537	0.018895
675.182	0.027515
684.827	0.037685
694.472	0.047005
704.116	0.024005
713.761	0.011545
723.406	0.009405
733.051	0.011945
742.695	0.007545
752.34	0.004505
761.985	0.003345
771.63	0.002185
781.275	0.003105
790.919	0.004265
800.564	0.009985
810.209	0.014645
819.854	0.015275
829.498	0.011215
839.143	0.013185
848.788	0.014775
858.433	0.010665
868.078	0.005455
877.722	0.003415
887.367	0.003085
897.012	0.002565
906.657	0.002915
916.301	0.004185
925.946	0.006805
935.591	0.005005
945.236	0.002885
954.88	0.002685
964.525	0.002955
974.17	0.002675
983.815	0.002955
993.46	0.003765
1003.1	0.003545
1012.75	0.011865
1022.39	0.009535
1032.04	0.003115
1041.68	0.004145
1051.33	0.004385
1060.97	0.005985
1070.62	0.008485
1080.26	0.014785
1089.91	0.015415
1099.55	0.013125
1109.2	0.012195
1118.84	0.013055
1128.49	0.014785
1138.13	0.018005
1147.78	0.028205
1157.42	0.065165
1167.07	0.156635
1176.71	0.186565
1186.36	0.239795
1196	0.363405
1205.64	0.364405
1215.29	0.425735
1224.93	0.305355
1234.58	0.131105
1244.22	0.117015
1253.87	0.182845
1263.51	0.336945
1273.16	0.398715
1282.8	0.217905
1292.45	0.108055
1302.09	0.069995
1311.74	0.044545
1321.38	0.027335
1331.03	0.018445
1340.67	0.013545
1350.32	0.010445
1359.96	0.009565
1369.61	0.011635
1379.25	0.019675
1388.9	0.047885
1398.54	0.102605
1408.18	0.093685
1417.83	0.034475
1427.47	0.011525
1437.12	0.007355
1446.76	0.006595
1456.41	0.006985
1466.05	0.007365
1475.7	0.012105
1485.34	0.029015
1494.99	0.053445
1504.63	0.017155
1514.28	0.006895
1523.92	0.005285
1533.57	0.004655
1543.21	0.004665
1552.86	0.005815
1562.5	0.007765
1572.15	0.012385
1581.79	0.022285
1591.44	0.032785
1601.08	0.017975
1610.73	0.009605
1620.37	0.007465
1630.01	0.006425
1639.66	0.004815
1649.3	0.004735
1658.95	0.004295
1668.59	0.003355
1678.24	0.003015
1687.88	0.002215
1697.53	0.002155
1707.17	0.0017708
1716.82	0.0018546
1726.46	0.0017165
1736.11	0.002045
1745.75	0.002195
1755.4	0.002205
1765.04	0.002865
1774.69	0.004065
1784.33	0.003275
1793.98	0.002555
1803.62	0.002145
1813.27	0.002195
1822.91	0.002055
1832.55	0.0017625
1842.2	0.0018203
1851.84	0.0015817
1861.49	0.0017103
1871.13	0.0018029
1880.78	0.0019311
1890.42	0.002325
1900.07	0.003035
1909.71	0.003865
1919.36	0.003105
1929	0.0018778
1938.65	0.001741
1948.29	0.0016312
1957.94	0.0016462
1967.58	0.0014382
1977.23	0.002025
1986.87	0.002085
1996.52	0.002075
2006.16	0.002265
2015.81	0.002635
2025.45	0.002975
2035.1	0.002675
2044.74	0.002435
2054.38	0.002205
2064.03	0.002115
2073.67	0.002225
2083.32	0.002235
2092.96	0.002185
2102.61	0.002155
2112.25	0.002325
2121.9	0.002035
2131.54	0.002545
2141.19	0.002355
2150.83	0.0019223
2160.48	0.002095
2170.12	0.0016067
2179.77	0.0017409
2189.41	0.0019201
2199.06	0.00169
2208.7	0.0012798
2218.35	0.0009461
2227.99	0.0011595
2237.64	0.0012351
2247.28	0.0013962
2256.92	0.0015758
2266.57	0.0014836
2276.21	0.0017267
2285.86	0.0015109
2295.5	0.0014284
2305.15	0.0013879
2314.79	0.0013691
2324.44	0.0015271
2334.08	0.0012565
2343.73	0.0012736
2353.37	0.001562
2363.02	0.0017162
2372.66	0.002005
2382.31	0.002525
2391.95	0.002425
2401.6	0.002585
2411.24	0.002545
2420.89	0.003205
2430.53	0.003715
2440.18	0.003535
2449.82	0.003205
2459.47	0.002485
2469.11	0.002515
2478.75	0.002325
2488.4	0.002615
2498.04	0.002075
2507.69	0.002175
2517.33	0.002095
2526.98	0.0018084
2536.62	0.0019199
2546.27	0.002355
2555.91	0.002355
2565.56	0.002595
2575.2	0.002395
2584.85	0.002215
2594.49	0.001995
2604.14	0.0016343
2613.78	0.0014274
2623.43	0.0011794
2633.07	0.0009489
2642.72	0.00104681
2652.36	0.0009175
2662.01	0.0013288
2671.65	0.0008818
2681.29	0.0011068
2690.94	0.0012126
2700.58	0.0011024
2710.23	0.0011128
2719.87	0.00098096
2729.52	0.0010756
2739.16	0.000865
2748.81	0.00101033
2758.45	0.00102056
2768.1	0.00098622
2777.74	0.0012176
2787.39	0.00102001
2797.03	0.0014611
2806.68	0.0011833
2816.32	0.000295
2825.97	0.0014281
2835.61	0.0010914
2845.26	0.0012283
2854.9	0.000807
2864.55	0.000305
2874.19	0.000613
2883.84	0.0011296
2893.48	0.0008967
2903.12	0.0008998
2912.77	0.000859
2922.41	0.000365
2932.06	0.000716
2941.7	0.00099943
2951.35	0.000483
2960.99	0.000743
2970.64	0.001163
2980.28	0.000738
2989.93	0.000862
2999.57	0.000858
3009.22	0.000656
3018.86	0.0010858
3028.51	0.00105519
3038.15	0.000597
3047.8	0.00104392
3057.44	0.0016541
3067.09	0.0012409
3076.73	0.0014084
3086.38	0.002825
3096.02	0.001995
3105.67	0.0014449
3115.31	0.00102477
3124.95	0.000651
3134.6	0.000809
3144.24	0.000526
3153.89	0.00074
3163.53	0.0009546
3173.18	0.0009805
3182.82	0.00096025
3192.47	0.000523
3202.11	0.000436
3211.76	0.000408
3221.4	0.0011717
3231.05	0.000782
3240.69	0.00100121
3250.34	0.0010967
3259.98	0.0010984
3269.63	0.0011695
3279.27	0.000672
3288.92	0.00097676
3298.56	0.0010922
3308.21	0.000406
3317.85	0.000732
3327.49	0.000363
3337.14	0.000447
3346.78	0.0009096
3356.43	0.00101743
3366.07	0.0014525
3375.72	0.000687
3385.36	0.0015764
3395.01	0.0009094
3404.65	0.00097808
3414.3	0.000768
3423.94	0.00101272
3433.59	0.0010745
3443.23	0.000405
3452.88	0.0014303
3462.52	0.000386
3472.17	0.0015586
3481.81	0.0013009
3491.46	0.000503
3501.1	0.0013665
3510.75	0.000585
3520.39	0.000389
3530.04	0.000651
3539.68	0.000315
3549.32	0.0011753
3558.97	0.000731
3568.61	0.000497
3578.26	0.0010505
3587.9	0.000665
3597.55	0.000364
3607.19	0.000812
3616.84	0.000753
3626.48	0.00071
3636.13	0.000757
3645.77	0.000223
3655.42	0.0011901
3665.06	0.0011579
3674.71	0.000659
3684.35	0.000569
3694	0.000572
3703.64	0.0012263
3713.29	0.00097936
3722.93	0.0011181
3732.58	0.0015531
3742.22	0.000771
3751.86	0.00082
3761.51	0.000414
3771.15	0.000511
3780.8	0.000524
3790.44	0.000825
3800.09	0.000397
3809.73	0.0011156
3819.38	0.00101365
3829.02	0.000852
3838.67	0.00097802
3848.31	0.000841
3857.96	0.000385
3867.6	0.000835
3877.25	0.0012647
3886.89	0.0011115
3896.54	0.000973527
3906.18	0.0017373
3915.83	0.0010729
3925.47	0.000545
3935.12	0.00104442
3944.76	0.0009371
3954.41	0.0009163
3964.05	0.000479
3973.69	0.000819
3983.34	0.0011137
3992.98	0.0009326
