Infrared Spectrum: ACETYLDICYCLOPROPYL KETOXIME
Formula: C9 H13 N O2
CAS: 94115-41-0
State: LIQUID
Class: COBLENTZ
Instrument: PERKIN-ELMER
Sampling: TRANSMISSION
Path length: CAPILLARY
Resolution: 4
Origin: ABBOTT LABORATORIES - WASHBURN
MICROMETERS	TRANSMITTANCE
2.039	0.91
2.07287	0.906
2.10675	0.906
2.14062	0.908
2.1745	0.908
2.20837	0.906
2.24225	0.8894
2.27612	0.8908
2.31	0.9
2.34387	0.896
2.37775	0.894
2.41162	0.896
2.4455	0.898
2.47937	0.9
2.51325	0.9001
2.54712	0.9
2.581	0.903
2.61487	0.906
2.64875	0.906
2.68262	0.9061
2.7165	0.893
2.75037	0.8812
2.78425	0.8692
2.81812	0.8546
2.852	0.847
2.88587	0.857
2.91975	0.872
2.95362	0.877
2.9875	0.881
3.02137	0.883
3.05525	0.884
3.08912	0.884
3.123	0.886
3.15687	0.881
3.19075	0.8691
3.22462	0.8053
3.2585	0.8076
3.29237	0.7189
3.32625	0.7525
3.36012	0.8211
3.39399	0.83
3.42787	0.85
3.46174	0.862
3.49562	0.8719
3.52949	0.8927
3.56337	0.898
3.59724	0.9027
3.63112	0.9009
3.66499	0.903
3.69887	0.901
3.73274	0.901
3.76662	0.901
3.80049	0.8981
3.83437	0.898
3.86824	0.9009
3.90212	0.9028
3.93599	0.901
3.96987	0.903
4.00374	0.9
4.03762	0.9
4.07149	0.9
4.10537	0.898
4.13924	0.8958
4.17312	0.8958
4.20699	0.903
4.24087	0.908
4.27474	0.911
4.30862	0.91
4.34249	0.9031
4.37637	0.898
4.41024	0.9
4.44412	0.898
4.47799	0.894
4.51187	0.894
4.54574	0.8959
4.57962	0.894
4.61349	0.8891
4.64737	0.883
4.68124	0.883
4.71512	0.881
4.74899	0.879
4.78286	0.874
4.81674	0.8829
4.85061	0.8929
4.88449	0.8997
4.91836	0.8998
4.95224	0.8982
4.98611	0.894
5.01999	0.893
5.05386	0.894
5.08774	0.893
5.12161	0.8847
5.15549	0.8749
5.18936	0.874
5.22324	0.871
5.25711	0.869
5.29099	0.867
5.32486	0.8613
5.35874	0.8516
5.39261	0.8347
5.42649	0.8152
5.46036	0.803
5.49424	0.7658
5.52811	0.7172
5.56199	0.5698
5.59586	0.2938
5.62974	0.1564
5.66361	0.1366
5.69749	0.1694
5.73136	0.363
5.76524	0.59
5.79911	0.6632
5.83299	0.7303
5.86686	0.7779
5.90074	0.8149
5.93461	0.8248
5.96849	0.827
6.00236	0.8236
6.03624	0.8188
6.07011	0.7949
6.10398	0.7671
6.13786	0.7021
6.17173	0.446
6.20561	0.5153
6.23948	0.732
6.27336	0.817
6.30723	0.833
6.34111	0.8369
6.37498	0.8449
6.40886	0.854
6.44273	0.8547
6.47661	0.855
6.51048	0.8578
6.54436	0.859
6.57823	0.8561
6.61211	0.8562
6.64598	0.85
6.67986	0.849
6.71373	0.8468
6.74761	0.842
6.78148	0.8273
6.81536	0.7782
6.84923	0.741
6.88311	0.7028
6.91698	0.6883
6.95086	0.6579
6.98473	0.6189
7.01861	0.628
7.05248	0.6634
7.08636	0.6592
7.12023	0.5271
7.15411	0.5013
7.18798	0.6248
7.22186	0.6941
7.25573	0.6627
7.28961	0.4723
7.32348	0.338
7.35736	0.5456
7.39123	0.6881
7.4251	0.7503
7.45898	0.813
7.49285	0.8348
7.52673	0.8477
7.5606	0.852
7.59448	0.8524
7.62835	0.849
7.66223	0.845
7.6961	0.8323
7.72998	0.8135
7.76385	0.7951
7.79773	0.7586
7.8316	0.6413
7.86548	0.5258
7.89935	0.469
7.93323	0.462
7.9671	0.5183
8.00098	0.5568
8.03485	0.5041
8.06873	0.415
8.1026	0.2972
8.13648	0.215
8.17035	0.1547
8.20423	0.1278
8.2381	0.1115
8.27198	0.1087
8.30585	0.1553
8.33973	0.2045
8.3736	0.2343
8.40748	0.292
8.44135	0.4258
8.47523	0.5171
8.5091	0.5773
8.54298	0.6313
8.57685	0.6979
8.61073	0.751
8.6446	0.783
8.67848	0.8002
8.71235	0.811
8.74623	0.8171
8.7801	0.826
8.81397	0.83
8.84785	0.83
8.88172	0.832
8.9156	0.827
8.94947	0.8194
8.98335	0.7999
9.01722	0.7743
9.0511	0.7506
9.08497	0.745
9.11885	0.7534
9.15272	0.7712
9.1866	0.7866
9.22047	0.7951
9.25435	0.7996
9.28822	0.7904
9.3221	0.7534
9.35597	0.7384
9.38985	0.7087
9.42372	0.6368
9.4576	0.6031
9.49147	0.6149
9.52535	0.6365
9.55922	0.619
9.5931	0.5924
9.62697	0.4847
9.66085	0.4036
9.69472	0.3834
9.7286	0.428
9.76247	0.5033
9.79635	0.5504
9.83022	0.5706
9.8641	0.5637
9.89797	0.5467
9.93185	0.4849
9.96572	0.4173
9.9996	0.4008
10.0335	0.4924
10.0673	0.5861
10.1012	0.6642
10.1351	0.7271
10.169	0.7643
10.2028	0.7891
10.2367	0.7945
10.2706	0.8
10.3045	0.7939
10.3383	0.7829
10.3722	0.7575
10.4061	0.6926
10.44	0.6348
10.4738	0.533
10.5077	0.4156
10.5416	0.3151
10.5755	0.2604
10.6093	0.233
10.6432	0.2373
10.6771	0.2547
10.711	0.2913
10.7448	0.3308
10.7787	0.3751
10.8126	0.4281
10.8465	0.4636
10.8803	0.4824
10.9142	0.501
10.9481	0.5093
10.982	0.5039
11.0158	0.4835
11.0497	0.4678
11.0836	0.4497
11.1175	0.4287
11.1513	0.4067
11.1852	0.3888
11.2191	0.3862
11.253	0.4101
11.2868	0.4533
11.3207	0.5226
11.3546	0.6033
11.3885	0.6465
11.4223	0.6798
11.4562	0.7017
11.4901	0.7175
11.524	0.725
11.5578	0.7244
11.5917	0.709
11.6256	0.673
11.6595	0.6464
11.6933	0.6222
11.7272	0.6082
11.7611	0.6128
11.795	0.6342
11.8288	0.6657
11.8627	0.7013
11.8966	0.7208
11.9305	0.7334
11.9643	0.7376
11.9982	0.7215
12.0321	0.706
12.066	0.6766
12.0998	0.6492
12.1337	0.632
12.1676	0.628
12.2015	0.6447
12.2353	0.6776
12.2692	0.721
12.3031	0.7682
12.337	0.7935
12.3708	0.8093
12.4047	0.82
12.4386	0.823
12.4725	0.823
12.5063	0.822
12.5402	0.822
12.5741	0.827
12.608	0.828
12.6418	0.8329
12.6757	0.837
12.7096	0.832
12.7435	0.8362
12.7773	0.842
12.8112	0.845
12.8451	0.8529
12.879	0.8598
12.9128	0.8663
12.9467	0.8674
12.9806	0.869
13.0145	0.872
13.0483	0.872
13.0822	0.876
13.1161	0.876
13.15	0.8768
13.1838	0.8726
13.2177	0.8698
13.2516	0.868
13.2855	0.8651
13.3193	0.866
13.3532	0.8645
13.3871	0.862
13.421	0.855
13.4548	0.85
13.4887	0.849
13.5226	0.8381
13.5565	0.8228
13.5903	0.8069
13.6242	0.782
13.6581	0.7569
13.692	0.7356
13.7258	0.7308
13.7597	0.7389
13.7936	0.7572
13.8275	0.7725
13.8613	0.7894
13.8952	0.8001
13.9291	0.803
13.963	0.8109
13.9968	0.816
14.0307	0.8144
14.0646	0.816
14.0985	0.8136
14.1323	0.815
14.1662	0.815
14.2001	0.8154
14.234	0.8144
14.2678	0.8108
14.3017	0.8097
14.3356	0.8061
14.3695	0.808
14.4033	0.8032
14.4372	0.8
14.4711	0.794
14.505	0.7945
14.5388	0.793
14.5727	0.789
14.6066	0.782
14.6405	0.777
14.6743	0.774
14.7082	0.769
14.7421	0.767
14.776	0.766
14.8098	0.7568
14.8437	0.752
14.8776	0.749
14.9115	0.7404
14.9453	0.742
14.9792	0.74
15.0131	0.7303
15.047	0.7238
15.0808	0.723
15.1147	0.7192
15.1486	0.713
15.1825	0.711
15.2163	0.701
15.2502	0.7
15.2841	0.6961
15.318	0.6881
15.3518	0.6856
15.3857	0.6832
15.4196	0.6725
15.4535	0.667
