Infrared Spectrum: 7H-IMIDAZO[4,5-d]-v-TRIAZIN-4-ONE, 6-METHYL-
Formula: C5 H5 N5 O
CAS: 94190-03-1
State: SOLID (1 mg / 500 mg KBr DISC)
Class: COBLENTZ III
Instrument: PERKIN-ELMER 521 (GRATING)
Sampling: TRANSMISSION
Resolution: 4
Origin: SOUTHERN RESEARCH INSTITUTE
1/CM	TRANSMITTANCE
255.478	0.227
265.995	0.2789
276.512	0.3809
287.029	0.458
297.547	0.551
308.064	0.625
318.581	0.67
329.098	0.685
339.615	0.659
350.132	0.725
360.649	0.775
371.166	0.792
381.684	0.788
392.201	0.649
402.718	0.777
413.235	0.831
423.752	0.833
434.269	0.831
444.786	0.835
455.303	0.835
465.821	0.835
476.338	0.833
486.855	0.819
497.372	0.6791
507.889	0.7589
518.406	0.859
528.923	0.854
539.44	0.846
549.958	0.838
560.475	0.83
570.992	0.784
581.509	0.8249
592.026	0.7081
602.543	0.4501
613.06	0.727
623.577	0.827
634.095	0.7871
644.612	0.54
655.129	0.7049
665.646	0.86
676.163	0.869
686.68	0.871
697.197	0.869
707.714	0.873
718.232	0.875
728.749	0.865
739.266	0.855
749.783	0.846
760.3	0.83
770.817	0.787
781.334	0.5609
791.851	0.6841
802.369	0.6988
812.886	0.796
823.403	0.762
833.92	0.705
844.437	0.613
854.954	0.587
865.471	0.675
875.989	0.747
886.506	0.776
897.023	0.772
907.54	0.738
918.057	0.614
928.574	0.507
939.091	0.655
949.608	0.703
960.126	0.681
970.643	0.729
981.16	0.77
991.677	0.768
1002.19	0.746
1012.71	0.596
1023.23	0.453
1033.75	0.752
1044.26	0.762
1054.78	0.746
1065.3	0.678
1075.81	0.771
1086.33	0.826
1096.85	0.826
1107.37	0.798
1117.88	0.77
1128.4	0.716
1138.92	0.75
1149.43	0.84
1159.95	0.833
1170.47	0.819
1180.99	0.804
1191.5	0.749
1202.02	0.6369
1212.54	0.4451
1223.05	0.7869
1233.57	0.823
1244.09	0.791
1254.61	0.773
1265.12	0.729
1275.64	0.699
1286.16	0.762
1296.67	0.752
1307.19	0.738
1317.71	0.705
1328.22	0.616
1338.74	0.455
1349.26	0.558
1359.78	0.4961
1370.29	0.57
1380.81	0.466
1391.33	0.603
1401.84	0.455
1412.36	0.373
1422.88	0.5789
1433.4	0.691
1443.91	0.714
1454.43	0.72
1464.95	0.663
1475.46	0.563
1485.98	0.495
1496.5	0.588
1507.02	0.578
1517.53	0.4519
1528.05	0.302
1538.57	0.504
1549.08	0.714
1559.6	0.689
1570.12	0.688
1580.64	0.683
1591.15	0.65
1601.67	0.617
1612.19	0.563
1622.7	0.504
1633.22	0.445
1643.74	0.374
1654.26	0.268
1664.77	0.204
1675.29	0.118
1685.81	0.078
1696.32	0.088
1706.84	0.141
1717.36	0.264
1727.88	0.4551
1738.39	0.704
1748.91	0.783
1759.43	0.81
1769.94	0.81
1780.46	0.829
1790.98	0.846
1801.5	0.843
1812.01	0.833
1822.53	0.83
1833.05	0.818
1843.56	0.793
1854.08	0.767
1864.6	0.758
1875.12	0.762
1885.63	0.767
1896.15	0.77
1906.67	0.772
1917.18	0.777
1927.7	0.785
1938.22	0.787
1948.74	0.791
1959.25	0.792
1969.77	0.792
1980.29	0.795
1990.8	0.802
2001.32	0.805
2011.84	0.804
2022.36	0.802
2032.87	0.805
2043.39	0.802
2053.91	0.802
2064.42	0.8
2074.94	0.798
2085.46	0.798
2095.98	0.796
2106.49	0.793
2117.01	0.7882
2127.53	0.783
2138.04	0.784
2148.56	0.791
2159.08	0.791
2169.6	0.7872
2180.11	0.7802
2190.63	0.7763
2201.15	0.7735
2211.66	0.77
2222.18	0.7633
2232.7	0.759
2243.22	0.752
2253.73	0.74
2264.25	0.727
2274.77	0.725
2285.28	0.721
2295.8	0.714
2306.32	0.7062
2316.83	0.6878
2327.35	0.6674
2337.87	0.658
2348.39	0.655
2358.9	0.649
2369.42	0.647
2379.94	0.6425
2390.45	0.627
2400.97	0.6146
2411.49	0.5981
2422.01	0.591
2432.52	0.59
2443.04	0.5792
2453.56	0.5642
2464.07	0.5586
2474.59	0.5429
2485.11	0.5319
2495.63	0.5233
2506.14	0.511
2516.66	0.4941
2527.18	0.4747
2537.69	0.4487
2548.21	0.4485
2558.73	0.458
2569.25	0.4523
2579.76	0.4395
2590.28	0.4266
2600.8	0.4104
2611.31	0.3948
2621.83	0.3806
2632.35	0.37
2642.87	0.3654
2653.38	0.3485
2663.9	0.3239
2674.42	0.314
2684.93	0.3201
2695.45	0.327
2705.97	0.328
2716.49	0.324
2727	0.324
2737.52	0.324
2748.04	0.312
2758.55	0.307
2769.07	0.311
2779.59	0.306
2790.11	0.2961
2800.62	0.2979
2811.14	0.3098
2821.66	0.3189
2832.17	0.3405
2842.69	0.3785
2853.21	0.3989
2863.73	0.3914
2874.24	0.3461
2884.76	0.3067
2895.28	0.302
2905.79	0.308
2916.31	0.3118
2926.83	0.3241
2937.35	0.333
2947.86	0.3397
2958.38	0.3552
2968.9	0.3824
2979.41	0.396
2989.93	0.3813
3000.45	0.3493
3010.97	0.3277
3021.48	0.32
3032	0.3316
3042.52	0.3432
3053.03	0.352
3063.55	0.354
3074.07	0.357
3084.59	0.3666
3095.1	0.3775
3105.62	0.3905
3116.14	0.4141
3126.65	0.4375
3137.17	0.447
3147.69	0.4604
3158.21	0.4898
3168.72	0.5262
3179.24	0.5663
3189.76	0.5943
3200.27	0.6124
3210.79	0.6294
3221.31	0.6454
3231.83	0.6601
3242.34	0.671
3252.86	0.68
3263.38	0.689
3273.89	0.693
3284.41	0.696
3294.93	0.6993
3305.44	0.6985
3315.96	0.6928
3326.48	0.6825
3337	0.6718
3347.51	0.6526
3358.03	0.6376
3368.55	0.6208
3379.06	0.6008
3389.58	0.5878
3400.1	0.5749
3410.62	0.5647
3421.13	0.557
3431.65	0.553
3442.17	0.5531
3452.68	0.557
3463.2	0.562
3473.72	0.5681
3484.24	0.574
3494.75	0.582
3505.27	0.591
3515.79	0.601
3526.3	0.614
3536.82	0.63
3547.34	0.6449
3557.86	0.6599
3568.37	0.6759
3578.89	0.691
3589.41	0.7087
3599.92	0.7266
3610.44	0.7424
3620.96	0.7588
3631.48	0.7747
3641.99	0.783
3652.51	0.791
3663.03	0.792
3673.54	0.789
3684.06	0.793
3694.58	0.8017
3705.1	0.805
3715.61	0.805
3726.13	0.805
3736.65	0.8026
3747.16	0.801
3757.68	0.801
3768.2	0.8
3778.72	0.7964
3789.23	0.795
3799.75	0.793
3810.27	0.793
3820.78	0.793
3831.3	0.7914
3841.82	0.791
3852.34	0.788
3862.85	0.789
3873.37	0.788
3883.89	0.781
3894.4	0.784
3904.92	0.7805
3915.44	0.78
3925.96	0.7781
3936.47	0.7794
3946.99	0.779
3957.51	0.777
3968.02	0.78
3978.54	0.7783
3989.06	0.777
3999.58	0.776
