Infrared Spectrum: 1,2,3,4-Tetrahydrocarbazole
Formula: C 12 H 13 N
CAS: 942-01-8
State: gas
Instrument: HP-GC/MS/IRD
Origin: NIST Mass Spectrometry Data Center
1/CM	ABSORBANCE
550	0.000528
562	0.000489
574	0.000687
586	0.000423
598	0.000519
610	0.000462
622	0.001188
634	0.001647
646	0.000855
658	0.000741
670	0.001062
682	0.001173
694	0.001296
706	0.001668
718	0.004923
730	0.014676
742	0.013326
754	0.005805
766	0.003792
778	0.003057
790	0.00231
802	0.001734
814	0.001401
826	0.001152
838	0.000762
850	0.000747
862	0.000744
874	0.000375
886	0.000312
898	0.000507
910	0.000639
922	0.000555
934	0.000315
946	0.000363
958	0.00033
970	0.000204
982	0.000396
994	0.000687
1006	0.001413
1018	0.001074
1030	0.000207
1042	0.000102
1054	0.000159
1066	0.00015
1078	6e-05
1090	3.6e-05
1102	0.000144
1114	0.000309
1126	0.000831
1138	0.002862
1150	0.004083
1162	0.001953
1174	0.000726
1186	0.000576
1198	0.00084
1210	0.000879
1222	0.002607
1234	0.004545
1246	0.001911
1258	0.001575
1270	0.002103
1282	0.002682
1294	0.003699
1306	0.004881
1318	0.005637
1330	0.00411
1342	0.003045
1354	0.002214
1366	0.002211
1378	0.001101
1390	0.000585
1402	0.000849
1414	0.001428
1426	0.003135
1438	0.004905
1450	0.00774
1462	0.012927
1474	0.006549
1486	0.002076
1498	0.000822
1510	0.000255
1522	0.00015
1534	0.000207
1546	0.000273
1558	0.000567
1570	0.000882
1582	0.00066
1594	0.000672
1606	0.000678
1618	0.000933
1630	0.000759
1642	0.000585
1654	0.000597
1666	0.000216
1678	0.000159
1690	6.9e-05
1702	0.000132
1714	9.9e-05
1726	6.9e-05
1738	0.000285
1750	0.000462
1762	0.000306
1774	0.000174
1786	0.0003
1798	0.000168
1810	8.4e-05
1822	0.00021
1834	0.000324
1846	0.000195
1858	0.000366
1870	0.000513
1882	0.000228
1894	0.000213
1906	0.000594
1918	0.00027
1930	4.5e-05
1942	4.2e-05
1954	4.8e-05
1966	3.9e-05
1978	5.7e-05
1990	6e-05
2002	1.8e-05
2014	3.3e-05
2026	2.7e-05
2038	3e-05
2050	3.9e-05
2062	3.6e-05
2074	2.1e-05
2086	3.6e-05
2098	5.7e-05
2110	4.2e-05
2122	4.8e-05
2134	5.1e-05
2146	6e-05
2158	4.8e-05
2170	4.5e-05
2182	2.1e-05
2194	2.1e-05
2206	3.9e-05
2218	5.1e-05
2230	3.9e-05
2242	4.5e-05
2254	7.5e-05
2266	0.000102
2278	0.000117
2290	0.000132
2302	0.000117
2314	9.9e-05
2326	3.9e-05
2338	6e-05
2350	7.2e-05
2362	0
2374	5.7e-05
2386	0.000126
2398	0.000153
2410	0.000111
2422	9.3e-05
2434	0.000105
2446	0.000126
2458	0.000192
2470	0.000177
2482	0.000186
2494	0.000147
2506	0.000165
2518	0.000195
2530	0.000168
2542	0.000174
2554	0.000192
2566	0.000195
2578	0.000231
2590	0.000264
2602	0.000291
2614	0.000297
2626	0.000324
2638	0.000357
2650	0.000495
2662	0.000654
2674	0.000597
2686	0.000522
2698	0.000414
2710	0.000354
2722	0.000366
2734	0.000297
2746	0.000252
2758	0.000324
2770	0.000486
2782	0.000699
2794	0.000846
2806	0.000957
2818	0.00126
2830	0.002145
2842	0.006264
2854	0.011559
2866	0.010893
2878	0.006459
2890	0.006678
2902	0.008955
2914	0.011886
2926	0.017802
2938	0.026661
2950	0.025881
2962	0.005085
2974	0.001407
2986	0.000882
2998	0.000909
3010	0.001584
3022	0.002544
3034	0.003171
3046	0.003681
3058	0.006441
3070	0.007602
3082	0.003399
3094	0.001818
3106	0.000765
3118	0.000396
3130	0.000309
3142	0.000285
3154	0.000207
3166	0.000168
3178	0.000186
3190	0.000219
3202	0.000276
3214	0.000273
3226	0.000207
3238	0.000117
3250	9.3e-05
3262	5.1e-05
3274	2.1e-05
3286	1.2e-05
3298	3.3e-05
3310	2.7e-05
3322	2.4e-05
3334	3e-06
3346	3.3e-05
3358	4.5e-05
3370	3.9e-05
3382	5.4e-05
3394	3.9e-05
3406	0.000126
3418	0.000129
3430	0.000219
3442	0.000273
3454	0.000498
3466	0.001128
3478	0.002604
3490	0.004929
3502	0.005223
3514	0.002586
3526	0.000843
3538	0.000459
3550	0.000291
3562	0.000186
3574	0.000117
3586	0.000108
3598	0.000117
3610	5.1e-05
3622	4.5e-05
3634	4.2e-05
3646	6e-05
3658	6.6e-05
3670	5.7e-05
3682	5.1e-05
3694	5.1e-05
3706	5.7e-05
3718	4.8e-05
3730	6.3e-05
3742	7.5e-05
3754	6.3e-05
3766	6.6e-05
3778	5.1e-05
3790	7.5e-05
3802	9.3e-05
3814	9.3e-05
3826	9.3e-05
3838	0.000111
