Infrared Spectrum: M-NITRO CARBANILIC ACID, n-OCTYL ESTER
Formula: C15 H22 N2 O4
CAS: 94205-20-6
State: SOLID (1.5 mg / 200 mg KBr)
Class: COBLENTZ
Instrument: Not specified, most likely a grating spectrometer.
Sampling: TRANSMISSION
Resolution: 4
Origin: CITRUS EXPERIMENT STATION, UNIVERSITY OF FLORIDA (G. EDWARDS)
MICROMETERS	TRANSMITTANCE
2.04	0.461
2.07322	0.469
2.10645	0.469
2.13967	0.468
2.17289	0.477
2.20612	0.481
2.23934	0.484
2.27256	0.486
2.30578	0.49
2.33901	0.494
2.37223	0.498
2.40545	0.505
2.43868	0.51
2.4719	0.514
2.50512	0.522
2.53835	0.529
2.57157	0.53
2.60479	0.518
2.63802	0.533
2.67124	0.53
2.70446	0.535
2.73769	0.538
2.77091	0.538
2.80413	0.537
2.83735	0.53
2.87058	0.522
2.9038	0.476
2.93702	0.367
2.97025	0.533
3.00347	0.55
3.03669	0.555
3.06992	0.563
3.10314	0.565
3.13636	0.561
3.16959	0.558
3.20281	0.573
3.23603	0.574
3.26925	0.573
3.30248	0.559
3.3357	0.51
3.36892	0.396
3.40215	0.389
3.43537	0.488
3.46859	0.468
3.50182	0.547
3.53504	0.606
3.56826	0.609
3.60149	0.622
3.63471	0.625
3.66793	0.628
3.70116	0.631
3.73438	0.632
3.7676	0.636
3.80082	0.639
3.83405	0.64
3.86727	0.642
3.90049	0.646
3.93372	0.647
3.96694	0.65
4.00016	0.654
4.03339	0.658
4.06661	0.662
4.09983	0.663
4.13306	0.668
4.16628	0.671
4.1995	0.678
4.23272	0.678
4.26595	0.678
4.29917	0.678
4.33239	0.679
4.36562	0.678
4.39884	0.679
4.43206	0.684
4.46529	0.687
4.49851	0.679
4.53173	0.68
4.56496	0.692
4.59818	0.695
4.6314	0.695
4.66463	0.694
4.69785	0.692
4.73107	0.698
4.76429	0.699
4.79752	0.702
4.83074	0.703
4.86396	0.704
4.89719	0.708
4.93041	0.707
4.96363	0.707
4.99686	0.71
5.03008	0.71
5.0633	0.711
5.09653	0.719
5.12975	0.719
5.16297	0.714
5.19619	0.72
5.22942	0.722
5.26264	0.72
5.29586	0.719
5.32909	0.715
5.36231	0.718
5.39553	0.718
5.42876	0.719
5.46198	0.72
5.4952	0.718
5.52843	0.708
5.56165	0.707
5.59487	0.69
5.6281	0.679
5.66132	0.644
5.69454	0.575
5.72776	0.486
5.76099	0.385
5.79421	0.36
5.82743	0.518
5.86066	0.674
5.89388	0.699
5.9271	0.72
5.96033	0.719
5.99355	0.712
6.02677	0.688
6.06	0.683
6.09322	0.662
6.12644	0.659
6.15966	0.659
6.19289	0.656
6.22611	0.647
6.25933	0.667
6.29256	0.652
6.32578	0.547
6.359	0.421
6.39223	0.376
6.42545	0.39
6.45867	0.494
6.4919	0.517
6.52512	0.647
6.55834	0.711
6.59157	0.718
6.62479	0.719
6.65801	0.703
6.69123	0.683
6.72446	0.655
6.75768	0.671
6.7909	0.675
6.82413	0.695
6.85735	0.699
6.89057	0.683
6.9238	0.643
6.95702	0.664
6.99024	0.732
7.02347	0.755
7.05669	0.76
7.08991	0.761
7.12313	0.76
7.15636	0.757
7.18958	0.743
7.2228	0.716
7.25603	0.69
7.28925	0.626
7.32247	0.496
7.3557	0.363
7.38892	0.335
7.42214	0.442
7.45537	0.529
7.48859	0.586
7.52181	0.589
7.55504	0.656
7.58826	0.71
7.62148	0.723
7.6547	0.724
7.68793	0.706
7.72115	0.614
7.75437	0.531
7.7876	0.597
7.82082	0.726
7.85404	0.744
7.88727	0.739
7.92049	0.718
7.95371	0.7
7.98694	0.635
8.02016	0.5
8.05338	0.38
8.08661	0.457
8.11983	0.571
8.15305	0.659
8.18627	0.69
8.2195	0.72
8.25272	0.759
8.28594	0.783
8.31917	0.801
8.35239	0.805
8.38561	0.811
8.41884	0.811
8.45206	0.809
8.48528	0.807
8.51851	0.8
8.55173	0.793
8.58495	0.796
8.61817	0.799
8.6514	0.812
8.68462	0.824
8.71784	0.828
8.75107	0.828
8.78429	0.831
8.81751	0.829
8.85074	0.829
8.88396	0.829
8.91718	0.828
8.95041	0.824
8.98363	0.804
9.01685	0.779
9.05008	0.761
9.0833	0.722
9.11652	0.676
9.14974	0.682
9.18297	0.702
9.21619	0.735
9.24941	0.769
9.28264	0.775
9.31586	0.769
9.34908	0.75
9.38231	0.727
9.41553	0.726
9.44875	0.738
9.48198	0.776
9.5152	0.816
9.54842	0.841
9.58164	0.855
9.61487	0.864
9.64809	0.871
9.68131	0.876
9.71454	0.884
9.74776	0.886
9.78098	0.885
9.81421	0.886
9.84743	0.888
9.88065	0.886
9.91388	0.889
9.9471	0.889
9.98032	0.889
10.0135	0.89
10.0468	0.894
10.08	0.9
10.1132	0.9
10.1464	0.898
10.1797	0.9
10.2129	0.9
10.2461	0.9
10.2793	0.901
10.3126	0.901
10.3458	0.901
10.379	0.901
10.4122	0.905
10.4454	0.905
10.4787	0.901
10.5119	0.89
10.5451	0.881
10.5783	0.861
10.6116	0.828
10.6448	0.799
10.678	0.825
10.7112	0.876
10.7445	0.898
10.7777	0.908
10.8109	0.914
10.8441	0.917
10.8773	0.918
10.9106	0.916
10.9438	0.917
10.977	0.917
11.0102	0.921
11.0435	0.922
11.0767	0.921
11.1099	0.92
11.1431	0.913
11.1764	0.904
11.2096	0.9
11.2428	0.882
11.276	0.824
11.3092	0.734
11.3425	0.768
11.3757	0.897
11.4089	0.922
11.4421	0.928
11.4754	0.929
11.5086	0.93
11.5418	0.933
11.575	0.936
11.6083	0.938
11.6415	0.941
11.6747	0.944
11.7079	0.942
11.7411	0.942
11.7744	0.942
11.8076	0.941
11.8408	0.94
11.874	0.94
11.9073	0.941
11.9405	0.938
11.9737	0.93
12.0069	0.921
12.0402	0.902
12.0734	0.856
12.1066	0.835
12.1398	0.884
12.173	0.914
12.2063	0.93
12.2395	0.941
12.2727	0.934
12.3059	0.926
12.3392	0.924
12.3724	0.913
12.4056	0.875
12.4388	0.825
12.4721	0.801
12.5053	0.832
12.5385	0.888
12.5717	0.921
12.6049	0.94
12.6382	0.948
12.6714	0.948
12.7046	0.949
12.7378	0.948
12.7711	0.941
12.8043	0.932
12.8375	0.93
12.8707	0.924
12.904	0.9
12.9372	0.869
12.9704	0.824
13.0036	0.76
13.0368	0.68
13.0701	0.716
13.1033	0.763
13.1365	0.784
13.1697	0.829
13.203	0.869
13.2362	0.89
13.2694	0.92
13.3026	0.938
13.3359	0.938
13.3691	0.934
13.4023	0.933
13.4355	0.914
13.4687	0.878
13.502	0.816
13.5352	0.739
13.5684	0.597
13.6016	0.569
13.6349	0.692
13.6681	0.835
13.7013	0.892
13.7345	0.904
13.7678	0.901
13.801	0.9
13.8342	0.908
13.8674	0.916
13.9006	0.941
13.9339	0.941
13.9671	0.94
14.0003	0.942
14.0335	0.941
14.0668	0.937
14.1	0.936
14.1332	0.933
14.1664	0.933
14.1997	0.932
14.2329	0.93
14.2661	0.929
14.2993	0.922
14.3325	0.912
14.3658	0.898
14.399	0.893
14.4322	0.873
14.4654	0.853
14.4987	0.832
14.5319	0.805
14.5651	0.787
14.5983	0.783
14.6316	0.789
14.6648	0.793
14.698	0.804
14.7312	0.804
14.7644	0.8
14.7977	0.789
14.8309	0.771
14.8641	0.748
14.8973	0.739
14.9306	0.743
14.9638	0.759
14.997	0.761
