Infrared Spectrum: 4-Bromo-3,5-dimethylpyrazole-1-methanol
Formula: C6 H9 Br N2 O
CAS: 94230-83-8
State: SOLID (SPLIT MULL)
Melting point: 132 C
Class: COBLENTZ II
Instrument: BECKMAN IR-9 (GRATING)
Instrument parameters: ORDER CHANGES: 670, 1200, 2000 CM^-^1
Sampling: TRANSMISSION
Resolution: 2
Origin: DOW CHEMICAL COMPANY
1/CM	TRANSMITTANCE
3800	0.6253
3791	0.6279
3782	0.6309
3773	0.6337
3764	0.636
3755	0.6384
3746	0.6414
3737	0.6445
3728	0.6475
3719	0.6499
3710	0.6522
3701	0.6544
3692	0.6558
3683	0.6574
3674	0.6594
3665	0.6614
3656	0.664
3647	0.6665
3638	0.6692
3629	0.6717
3620	0.6738
3611	0.6741
3602	0.6745
3593	0.6745
3584	0.6753
3575	0.6771
3566	0.679
3557	0.6801
3548	0.6811
3539	0.6821
3530	0.6828
3521	0.6833
3512	0.6834
3503	0.6825
3494	0.6812
3485	0.6792
3476	0.6768
3467	0.6704
3458	0.6625
3449	0.6481
3440	0.6352
3431	0.623
3422	0.6067
3413	0.5898
3404	0.5719
3395	0.5462
3386	0.5203
3377	0.4997
3368	0.4892
3359	0.4812
3350	0.4742
3341	0.466
3332	0.4566
3323	0.4451
3314	0.4326
3305	0.409
3296	0.3866
3287	0.36
3278	0.3329
3269	0.309
3260	0.2834
3251	0.2572
3242	0.2294
3233	0.2032
3224	0.1777
3215	0.1536
3206	0.1449
3197	0.1491
3188	0.162
3179	0.1782
3170	0.1979
3161	0.2228
3152	0.2522
3143	0.2752
3134	0.2992
3125	0.3243
3116	0.3512
3107	0.3734
3098	0.3864
3089	0.398
3080	0.4087
3071	0.419
3062	0.4289
3053	0.4374
3044	0.4438
3035	0.4479
3026	0.4509
3017	0.4525
3008	0.448
2999	0.3936
2990	0.4058
2981	0.4257
2972	0.422
2963	0.3554
2954	0.3092
2945	0.3971
2936	0.4129
2927	0.414
2918	0.427
2909	0.4469
2900	0.4528
2891	0.4509
2882	0.4485
2873	0.4462
2864	0.4434
2855	0.4416
2846	0.4479
2837	0.4615
2828	0.4807
2819	0.5014
2810	0.5248
2801	0.5437
2792	0.5603
2783	0.5738
2774	0.5858
2765	0.594
2756	0.6021
2747	0.6092
2738	0.616
2729	0.6226
2720	0.6289
2711	0.6351
2702	0.6412
2693	0.6474
2684	0.6535
2675	0.6596
2666	0.6653
2657	0.6698
2648	0.6746
2639	0.6793
2630	0.6815
2621	0.6837
2612	0.6861
2603	0.6884
2594	0.6907
2585	0.6941
2576	0.6978
2567	0.7025
2558	0.7083
2549	0.7137
2540	0.7178
2531	0.7206
2522	0.7219
2513	0.7234
2504	0.724
2495	0.7242
2486	0.7243
2477	0.7226
2468	0.721
2459	0.7184
2450	0.7158
2441	0.7206
2432	0.7244
2423	0.7293
2414	0.7344
2405	0.7395
2396	0.7444
2387	0.7485
2378	0.7514
2369	0.7528
2360	0.7531
2351	0.7531
2342	0.7528
2333	0.7525
2324	0.7533
2315	0.7549
2306	0.7564
2297	0.7585
2288	0.7608
2279	0.7631
2270	0.7662
2261	0.7698
2252	0.7746
2243	0.7797
2234	0.7851
2225	0.7904
2216	0.7948
2207	0.7982
2198	0.8007
2189	0.8031
2180	0.8054
2171	0.8075
2162	0.8096
2153	0.8111
2144	0.811
2135	0.8094
2126	0.8075
2117	0.8054
2108	0.8071
2099	0.8136
2090	0.8206
2081	0.827
2072	0.8333
2063	0.8382
2054	0.8413
2045	0.8446
2036	0.8466
2027	0.8484
2018	0.8491
2009	0.8494
2000	0.8478
1991	0.8463
1982	0.848
1973	0.8501
1964	0.852
1955	0.8524
1946	0.853
1937	0.8536
1928	0.8535
1919	0.8531
1910	0.8527
1901	0.8524
1892	0.8521
1883	0.8521
1874	0.8525
1865	0.8533
1856	0.8547
1847	0.8551
1838	0.8556
1829	0.8563
1820	0.8566
1811	0.8559
1802	0.8539
1793	0.853
1784	0.8539
1775	0.8582
1766	0.8591
1757	0.8566
1748	0.8544
1739	0.8528
1730	0.8436
1721	0.8344
1712	0.8468
1703	0.851
1694	0.851
1685	0.8431
1676	0.8382
1667	0.8405
1658	0.8425
1649	0.8433
1640	0.8434
1631	0.8424
1622	0.8404
1613	0.838
1604	0.8354
1595	0.8333
1586	0.8305
1577	0.8265
1568	0.8118
1559	0.7607
1550	0.4849
1541	0.7088
1532	0.7583
1523	0.774
1514	0.7662
1505	0.7641
1496	0.7217
1487	0.5156
1478	0.2692
1469	0.5359
1460	0.5193
1451	0.5315
1442	0.5191
1433	0.4945
1424	0.4978
1415	0.5653
1406	0.5719
1397	0.4339
1388	0.3657
1379	0.4064
1370	0.5815
1361	0.6169
1352	0.605
1343	0.5938
1334	0.7234
1325	0.6951
1316	0.5912
1307	0.297
1298	0.1912
1289	0.6317
1280	0.7171
1271	0.7558
1262	0.7674
1253	0.7615
1244	0.6633
1235	0.3455
1226	0.3705
1217	0.6179
1208	0.7046
1199	0.7221
1190	0.7335
1181	0.7269
1172	0.7211
1163	0.7107
1154	0.6628
1145	0.6159
1136	0.7287
1127	0.7308
1118	0.7206
1109	0.6886
1100	0.6323
1091	0.2342
1082	0.2796
1073	0.0354
1064	0.1716
1055	0.4698
1046	0.5662
1037	0.5691
1028	0.5104
1019	0.6358
1010	0.6374
1001	0.6746
992	0.6406
983	0.6824
974	0.7542
965	0.7776
956	0.7924
947	0.8001
938	0.8088
929	0.8175
920	0.8221
911	0.8239
902	0.8181
893	0.8214
884	0.8228
875	0.816
866	0.8168
857	0.7908
848	0.6489
839	0.5649
830	0.7971
821	0.8061
812	0.7953
803	0.7899
794	0.779
785	0.7626
776	0.7364
767	0.691
758	0.636
749	0.5549
740	0.4446
731	0.4244
722	0.4636
713	0.5048
704	0.5241
695	0.7669
686	0.8089
677	0.8218
668	0.8156
659	0.8005
650	0.8153
641	0.8011
632	0.8217
623	0.831
614	0.8373
605	0.8248
596	0.7814
587	0.8482
578	0.8525
569	0.8568
560	0.8584
551	0.8589
542	0.8586
533	0.8275
524	0.8481
515	0.8551
506	0.8482
497	0.8364
488	0.8045
479	0.7258
470	0.7105
461	0.7351
452	0.7218
443	0.6874
434	0.6438
425	0.5882
416	0.5344
407	0.527
