Infrared Spectrum: RHODANINE, 5-(P-METHOXYBENZYLIDENE)-3-(P-METHOXYBENZYLIDENEAMINO)-
Formula: C19 H16 N2 O3 S2
CAS: 94258-53-4
State: SOLID (KBr PELLET)
Melting point: 189-194 C
Class: COBLENTZ
Instrument: Not specified, most likely a prism, grating, or hybrid spectrometer.
Sampling: TRANSMISSION
Resolution: 4
Origin: TENNESSEE EASTMAN COMPANY, RESEARCH LABORATORIES
MICROMETERS	TRANSMITTANCE
2.007	0.613
2.04792	0.618
2.08885	0.625
2.12977	0.633
2.17069	0.647
2.21162	0.659
2.25254	0.669
2.29347	0.676
2.33439	0.686
2.37531	0.693
2.41624	0.703
2.45716	0.712
2.49808	0.717
2.53901	0.722
2.57993	0.729
2.62085	0.736
2.66178	0.744
2.7027	0.748
2.74362	0.717
2.78455	0.669
2.82547	0.635
2.8664	0.613
2.90732	0.602
2.94824	0.614
2.98917	0.657
3.03009	0.695
3.07101	0.719
3.11194	0.736
3.15286	0.758
3.19378	0.78
3.23471	0.789
3.27563	0.787
3.31655	0.732
3.35748	0.75
3.3984	0.746
3.43933	0.806
3.48025	0.813
3.52117	0.827
3.5621	0.856
3.60302	0.861
3.64394	0.868
3.68487	0.876
3.72579	0.88
3.76671	0.88
3.80764	0.881
3.84856	0.885
3.88948	0.885
3.93041	0.883
3.97133	0.897
4.01226	0.9
4.05318	0.905
4.0941	0.912
4.13503	0.912
4.17595	0.916
4.21687	0.919
4.2578	0.919
4.29872	0.919
4.33964	0.919
4.38057	0.928
4.42149	0.936
4.46241	0.941
4.50334	0.943
4.54426	0.945
4.58519	0.945
4.62611	0.946
4.66703	0.946
4.70796	0.946
4.74888	0.946
4.7898	0.946
4.83073	0.943
4.87165	0.922
4.91257	0.929
4.9535	0.941
4.99442	0.964
5.03534	0.96
5.07627	0.96
5.11719	0.96
5.15812	0.96
5.19904	0.957
5.23996	0.945
5.28089	0.948
5.32181	0.95
5.36273	0.952
5.40366	0.957
5.44458	0.953
5.4855	0.95
5.52643	0.952
5.56735	0.952
5.60827	0.95
5.6492	0.921
5.69012	0.888
5.73105	0.794
5.77197	0.688
5.81289	0.344
5.85382	0.193
5.89474	0.743
5.93566	0.799
5.97659	0.816
6.01751	0.827
6.05843	0.804
6.09936	0.777
6.14028	0.715
6.1812	0.414
6.22213	0.087
6.26305	0.09
6.30398	0.428
6.3449	0.227
6.38582	0.638
6.42675	0.809
6.46767	0.825
6.50859	0.801
6.54952	0.335
6.59044	0.333
6.63136	0.751
6.67229	0.828
6.71321	0.857
6.75413	0.797
6.79506	0.626
6.83598	0.698
6.87691	0.695
6.91783	0.761
6.95875	0.635
6.99968	0.628
7.0406	0.835
7.08152	0.854
7.12245	0.784
7.16337	0.698
7.20429	0.765
7.24522	0.813
7.28614	0.83
7.32706	0.833
7.36799	0.791
7.40891	0.686
7.44984	0.64
7.49076	0.426
7.53168	0.469
7.57261	0.506
7.61353	0.445
7.65445	0.556
7.69538	0.664
7.7363	0.708
7.77722	0.672
7.81815	0.558
7.85907	0.308
7.89999	0.085
7.94092	0.051
7.98184	0.046
8.02277	0.032
8.06369	0.171
8.10461	0.4
8.14554	0.366
8.18646	0.188
8.22738	0.107
8.26831	0.09
8.30923	0.393
8.35015	0.578
8.39108	0.583
8.432	0.183
8.47292	0.217
8.51385	0.22
8.55477	0.513
8.5957	0.732
8.63662	0.767
8.67754	0.796
8.71847	0.809
8.75939	0.813
8.80031	0.796
8.84124	0.785
8.88216	0.791
8.92308	0.791
8.96401	0.772
9.00493	0.785
9.04585	0.784
9.08678	0.592
9.1277	0.376
9.16863	0.476
9.20955	0.674
9.25047	0.775
9.2914	0.815
9.33232	0.828
9.37324	0.839
9.41417	0.84
9.45509	0.833
9.49601	0.779
9.53694	0.69
9.57786	0.744
9.61878	0.748
9.65971	0.626
9.70063	0.34
9.74156	0.251
9.78248	0.563
9.8234	0.741
9.86433	0.789
9.90525	0.794
9.94617	0.849
9.9871	0.866
10.028	0.878
10.0689	0.885
10.1099	0.888
10.1508	0.883
10.1917	0.878
10.2326	0.88
10.2736	0.881
10.3145	0.861
10.3554	0.796
10.3963	0.679
10.4373	0.599
10.4782	0.645
10.5191	0.734
10.56	0.799
10.601	0.827
10.6419	0.849
10.6828	0.868
10.7237	0.883
10.7646	0.902
10.8056	0.91
10.8465	0.895
10.8874	0.78
10.9283	0.852
10.9693	0.898
11.0102	0.919
11.0511	0.922
11.092	0.928
11.133	0.931
11.1739	0.933
11.2148	0.933
11.2557	0.929
11.2967	0.924
11.3376	0.928
11.3785	0.931
11.4194	0.934
11.4603	0.934
11.5013	0.934
11.5422	0.897
11.5831	0.782
11.624	0.714
11.665	0.827
11.7059	0.875
11.7468	0.893
11.7877	0.895
11.8287	0.837
11.8696	0.695
11.9105	0.412
11.9514	0.486
11.9924	0.553
12.0333	0.385
12.0742	0.501
12.1151	0.748
12.156	0.842
12.197	0.859
12.2379	0.845
12.2788	0.753
12.3197	0.758
12.3607	0.856
12.4016	0.902
12.4425	0.917
12.4834	0.922
12.5244	0.94
12.5653	0.95
12.6062	0.95
12.6471	0.924
12.6881	0.868
12.729	0.897
12.7699	0.94
12.8108	0.953
12.8517	0.964
12.8927	0.97
12.9336	0.972
12.9745	0.976
13.0154	0.977
13.0564	0.977
13.0973	0.979
13.1382	0.982
13.1791	0.981
13.2201	0.982
13.261	0.982
13.3019	0.982
13.3428	0.982
13.3838	0.982
13.4247	0.984
13.4656	0.984
13.5065	0.972
13.5474	0.936
13.5884	0.876
13.6293	0.827
13.6702	0.806
13.7111	0.84
13.7521	0.902
13.793	0.921
13.8339	0.922
13.8748	0.921
13.9158	0.883
13.9567	0.84
13.9976	0.842
14.0385	0.924
14.0795	0.969
14.1204	0.991
14.1613	0.998
14.2022	1
14.2431	1.001
14.2841	1.001
14.325	1.001
14.3659	1.001
14.4068	1.001
14.4478	0.998
14.4887	0.976
14.5296	0.904
14.5705	0.849
14.6115	0.851
14.6524	0.904
14.6933	0.962
14.7342	0.982
14.7752	0.994
14.8161	1
14.857	1.003
14.8979	1.003
14.9388	1.003
14.9798	1.001
15.0207	1
15.0616	1
15.1025	1
15.1435	1
15.1844	0.998
15.2253	0.996
15.2662	0.994
15.3072	0.994
15.3481	0.994
15.389	0.993
15.4299	0.986
15.4709	0.979
15.5118	0.974
15.5527	0.972
15.5936	0.97
15.6345	0.965
15.6755	0.962
15.7164	0.952
15.7573	0.941
15.7982	0.926
15.8392	0.909
15.8801	0.897
15.921	0.886
15.9619	0.868
