Infrared Spectrum: P-METHOXY CARBANILIC ACID, n-DECYL ESTER
Formula: C18 H29 N O3
CAS: 94261-68-4
State: SOLID (1.6 mg / 200 mg KBr)
Class: COBLENTZ
Instrument: Not specified, most likely a grating spectrometer.
Sampling: TRANSMISSION
Resolution: 4
Origin: CITRUS EXPERIMENT STATION, UNIVERSITY OF FLORIDA (G. EDWARDS)
MICROMETERS	TRANSMITTANCE
2.027	0.639
2.06019	0.64
2.09338	0.649
2.12657	0.652
2.15976	0.651
2.19295	0.648
2.22614	0.648
2.25933	0.649
2.29252	0.655
2.32571	0.653
2.3589	0.659
2.39209	0.659
2.42528	0.668
2.45847	0.668
2.49166	0.669
2.52485	0.669
2.55804	0.671
2.59123	0.673
2.62442	0.676
2.6576	0.677
2.69079	0.675
2.72398	0.664
2.75717	0.661
2.79036	0.655
2.82355	0.632
2.85674	0.623
2.88993	0.611
2.92312	0.58
2.95631	0.426
2.9895	0.255
3.02269	0.56
3.05588	0.648
3.08907	0.677
3.12226	0.688
3.15545	0.681
3.18864	0.677
3.22183	0.669
3.25502	0.653
3.28821	0.641
3.3214	0.529
3.35459	0.39
3.38778	0.229
3.42097	0.388
3.45416	0.4
3.48735	0.4
3.52054	0.636
3.55373	0.684
3.58692	0.691
3.62011	0.712
3.6533	0.72
3.68649	0.725
3.71968	0.723
3.75287	0.721
3.78606	0.728
3.81925	0.733
3.85244	0.737
3.88563	0.737
3.91881	0.737
3.952	0.737
3.98519	0.736
4.01838	0.739
4.05157	0.748
4.08476	0.748
4.11795	0.739
4.15114	0.739
4.18433	0.736
4.21752	0.761
4.25071	0.762
4.2839	0.762
4.31709	0.762
4.35028	0.764
4.38347	0.765
4.41666	0.769
4.44985	0.77
4.48304	0.77
4.51623	0.769
4.54942	0.772
4.58261	0.772
4.6158	0.772
4.64899	0.772
4.68218	0.772
4.71537	0.77
4.74856	0.77
4.78175	0.77
4.81494	0.77
4.84813	0.77
4.88132	0.769
4.91451	0.768
4.9477	0.778
4.98089	0.784
5.01408	0.784
5.04727	0.784
5.08046	0.788
5.11365	0.788
5.14684	0.788
5.18002	0.785
5.21321	0.785
5.2464	0.774
5.27959	0.774
5.31278	0.76
5.34597	0.778
5.37916	0.777
5.41235	0.773
5.44554	0.77
5.47873	0.77
5.51192	0.769
5.54511	0.764
5.5783	0.756
5.61149	0.753
5.64468	0.743
5.67787	0.701
5.71106	0.655
5.74425	0.628
5.77744	0.583
5.81063	0.386
5.84382	0.25
5.87701	0.231
5.9102	0.426
5.94339	0.628
5.97658	0.665
6.00977	0.676
6.04296	0.705
6.07615	0.708
6.10934	0.703
6.14253	0.668
6.17572	0.659
6.20891	0.576
6.2421	0.561
6.27529	0.704
6.30848	0.697
6.34167	0.612
6.37486	0.479
6.40804	0.263
6.44123	0.166
6.47442	0.181
6.50761	0.239
6.5408	0.368
6.57399	0.379
6.60718	0.588
6.64037	0.644
6.67356	0.651
6.70675	0.559
6.73994	0.47
6.77313	0.504
6.80632	0.567
6.83951	0.629
6.8727	0.649
6.90589	0.639
6.93908	0.659
6.97227	0.668
7.00546	0.596
7.03865	0.398
7.07184	0.568
7.10503	0.717
7.13822	0.729
7.17141	0.725
7.2046	0.739
7.23779	0.739
7.27098	0.752
7.30417	0.745
7.33736	0.735
7.37055	0.717
7.40374	0.705
7.43693	0.665
7.47012	0.612
7.50331	0.6
7.5365	0.56
7.56969	0.571
7.60288	0.568
7.63607	0.548
7.66925	0.589
7.70244	0.669
7.73563	0.664
7.76882	0.651
7.80201	0.583
7.8352	0.498
7.86839	0.479
7.90158	0.314
7.93477	0.143
7.96796	0.107
8.00115	0.055
8.03434	0.038
8.06753	0.05
8.10072	0.111
8.13391	0.292
8.1671	0.419
8.20029	0.529
8.23348	0.599
8.26667	0.637
8.29986	0.669
8.33305	0.72
8.36624	0.74
8.39943	0.733
8.43262	0.629
8.46581	0.43
8.499	0.531
8.53219	0.644
8.56538	0.773
8.59857	0.796
8.63176	0.801
8.66495	0.802
8.69814	0.806
8.73133	0.813
8.76452	0.812
8.79771	0.802
8.8309	0.786
8.86409	0.792
8.89728	0.794
8.93046	0.789
8.96365	0.737
8.99684	0.611
9.03003	0.692
9.06322	0.711
9.09641	0.624
9.1296	0.49
9.16279	0.532
9.19598	0.653
9.22917	0.655
9.26236	0.521
9.29555	0.315
9.32874	0.412
9.36193	0.635
9.39512	0.684
9.42831	0.732
9.4615	0.741
9.49469	0.729
9.52788	0.703
9.56107	0.62
9.59426	0.585
9.62745	0.482
9.66064	0.336
9.69383	0.404
9.72702	0.593
9.76021	0.7
9.7934	0.744
9.82659	0.776
9.85978	0.762
9.89297	0.781
9.92616	0.806
9.95935	0.826
9.99254	0.846
10.0257	0.86
10.0589	0.861
10.0921	0.868
10.1253	0.872
10.1585	0.873
10.1917	0.864
10.2249	0.869
10.2581	0.87
10.2912	0.87
10.3244	0.857
10.3576	0.866
10.3908	0.873
10.424	0.882
10.4572	0.894
10.4904	0.893
10.5236	0.888
10.5568	0.892
10.59	0.9
10.6231	0.902
10.6563	0.905
10.6895	0.902
10.7227	0.898
10.7559	0.897
10.7891	0.889
10.8223	0.896
10.8555	0.905
10.8887	0.906
10.9218	0.909
10.955	0.912
10.9882	0.912
11.0214	0.912
11.0546	0.91
11.0878	0.909
11.121	0.906
11.1542	0.904
11.1874	0.904
11.2206	0.904
11.2537	0.906
11.2869	0.914
11.3201	0.917
11.3533	0.916
11.3865	0.917
11.4197	0.917
11.4529	0.91
11.4861	0.908
11.5193	0.897
11.5525	0.892
11.5856	0.892
11.6188	0.902
11.652	0.901
11.6852	0.898
11.7184	0.904
11.7516	0.904
11.7848	0.898
11.818	0.894
11.8512	0.894
11.8844	0.886
11.9175	0.872
11.9507	0.852
11.9839	0.826
12.0171	0.786
12.0503	0.723
12.0835	0.54
12.1167	0.25
12.1499	0.221
12.1831	0.46
12.2162	0.7
12.2494	0.81
12.2826	0.804
12.3158	0.797
12.349	0.829
12.3822	0.873
12.4154	0.894
12.4486	0.905
12.4818	0.905
12.515	0.904
12.5481	0.894
12.5813	0.89
12.6145	0.881
12.6477	0.881
12.6809	0.858
12.7141	0.822
12.7473	0.77
12.7805	0.701
12.8137	0.611
12.8469	0.641
12.88	0.712
12.9132	0.727
12.9464	0.715
12.9796	0.728
13.0128	0.792
13.046	0.836
13.0792	0.852
13.1124	0.858
13.1456	0.874
13.1788	0.89
13.2119	0.912
13.2451	0.912
13.2783	0.91
13.3115	0.902
13.3447	0.886
13.3779	0.885
13.4111	0.866
13.4443	0.824
13.4775	0.777
13.5106	0.731
13.5438	0.717
13.577	0.769
13.6102	0.808
13.6434	0.81
13.6766	0.793
13.7098	0.769
13.743	0.752
13.7762	0.725
13.8094	0.731
13.8425	0.781
13.8757	0.837
13.9089	0.896
13.9421	0.91
13.9753	0.914
14.0085	0.921
14.0417	0.928
14.0749	0.914
14.1081	0.906
14.1413	0.908
14.1744	0.905
14.2076	0.908
14.2408	0.91
14.274	0.904
14.3072	0.888
14.3404	0.88
14.3736	0.87
14.4068	0.864
14.44	0.85
14.4732	0.836
14.5063	0.833
14.5395	0.826
14.5727	0.813
14.6059	0.805
14.6391	0.79
14.6723	0.781
14.7055	0.774
14.7387	0.76
14.7719	0.752
14.805	0.739
14.8382	0.72
14.8714	0.709
14.9046	0.68
14.9378	0.656
14.971	0.643
15.0042	0.637
