Infrared Spectrum: 3-Benzofuran carboxamide, N-(n-butyl)-2,3-dihydro-3-phenyl-,
Formula: C19 H21 N O2
CAS: 94310-89-1
State: SOLUTION 7% (CS2 FOR 7.5-15 microns, AND CCl4 FOR 2.5-7.5 microns)
Class: COBLENTZ III
Instrument: PERKIN-ELMER 21 (GRATING)
Instrument parameters: FILTER AT ABOUT 10 MICRONS
Path length: 0.01 CM
Resolution: 2
Origin: ABBOTT LABORATORIES
1/CM	TRANSMITTANCE
667	0.7973
676	0.7636
685	0.7343
694	0.4134
703	0.5485
712	0.667
721	0.7223
730	0.6787
739	0.5558
748	0.1343
757	0.5197
766	0.6696
775	0.7811
784	0.7995
793	0.7976
802	0.7869
811	0.7726
820	0.7608
829	0.6227
838	0.6512
847	0.7283
856	0.7935
865	0.7936
874	0.7923
883	0.797
892	0.7853
901	0.7712
910	0.7616
919	0.7382
928	0.6756
937	0.6026
946	0.6769
955	0.691
964	0.6655
973	0.599
982	0.4997
991	0.5373
1000	0.6601
1009	0.6625
1018	0.6042
1027	0.646
1036	0.7499
1045	0.7609
1054	0.76
1063	0.7575
1072	0.7227
1081	0.7201
1090	0.7288
1099	0.7163
1108	0.7034
1117	0.7386
1126	0.7535
1135	0.7276
1144	0.6652
1153	0.7041
1162	0.7449
1171	0.737
1180	0.7045
1189	0.6819
1198	0.5685
1207	0.4893
1216	0.4752
1225	0.3996
1234	0.3408
1243	0.3888
1252	0.4693
1261	0.5698
1270	0.5951
1279	0.6181
1288	0.6665
1297	0.6752
1306	0.6436
1315	0.6453
1324	0.7381
1333	0.7882
1342	0.7857
1351	0.7715
1360	0.754
1369	0.7319
1378	0.7473
1387	0.7954
1396	0.7958
1405	0.7932
1414	0.7779
1423	0.7317
1432	0.6207
1441	0.5586
1450	0.4546
1459	0.3606
1468	0.4058
1477	0.1365
1486	0.2897
1495	0.2598
1504	0.2112
1513	0.2922
1522	0.4524
1531	0.6091
1540	0.7329
1549	0.7617
1558	0.7647
1567	0.7558
1576	0.7048
1585	0.6372
1594	0.5272
1603	0.6454
1612	0.7211
1621	0.7596
1630	0.7533
1639	0.7291
1648	0.6435
1657	0.4585
1666	0.2055
1675	0.0916
1684	0.211
1693	0.4901
1702	0.672
1711	0.7962
1720	0.8213
1729	0.8328
1738	0.8388
1747	0.8405
1756	0.8428
1765	0.8494
1774	0.8513
1783	0.852
1792	0.8527
1801	0.8537
1810	0.8563
1819	0.8649
1828	0.8712
1837	0.8727
1846	0.8723
1855	0.8692
1864	0.8641
1873	0.8595
1882	0.8575
1891	0.8598
1900	0.866
1909	0.8688
1918	0.8684
1927	0.8672
1936	0.8653
1945	0.8655
1954	0.8693
1963	0.874
1972	0.8786
1981	0.8824
1990	0.8856
1999	0.8874
2008	0.8891
2017	0.8903
2026	0.8914
2035	0.8921
2044	0.8926
2053	0.8932
2062	0.8937
2071	0.894
2080	0.8944
2089	0.8948
2098	0.895
2107	0.895
2116	0.895
2125	0.895
2134	0.895
2143	0.8947
2152	0.8945
2161	0.8942
2170	0.894
2179	0.8938
2188	0.8935
2197	0.8934
2206	0.8934
2215	0.8934
2224	0.8933
2233	0.8933
2242	0.8933
2251	0.8933
2260	0.8933
2269	0.8934
2278	0.8934
2287	0.8934
2296	0.8934
2305	0.8935
2314	0.8934
2323	0.8934
2332	0.8934
2341	0.8934
2350	0.8934
2359	0.8934
2368	0.8933
2377	0.8934
2386	0.8934
2395	0.8934
2404	0.8934
2413	0.8934
2422	0.8934
2431	0.8934
2440	0.8933
2449	0.8933
2458	0.8932
2467	0.8932
2476	0.8929
2485	0.8924
2494	0.8918
2503	0.8912
2512	0.8907
2521	0.89
2530	0.8893
2539	0.8885
2548	0.8877
2557	0.8871
2566	0.8865
2575	0.8859
2584	0.8853
2593	0.8849
2602	0.8844
2611	0.884
2620	0.8835
2629	0.883
2638	0.8826
2647	0.8821
2656	0.8817
2665	0.8813
2674	0.8808
2683	0.8803
2692	0.8799
2701	0.8788
2710	0.8777
2719	0.8766
2728	0.8756
2737	0.8745
2746	0.8729
2755	0.871
2764	0.8681
2773	0.8639
2782	0.8597
2791	0.853
2800	0.8447
2809	0.8346
2818	0.8122
2827	0.7721
2836	0.7323
2845	0.6927
2854	0.6535
2863	0.6408
2872	0.6363
2881	0.6321
2890	0.6065
2899	0.5695
2908	0.5328
2917	0.5089
2926	0.5026
2935	0.5012
2944	0.5016
2953	0.5117
2962	0.5832
2971	0.6602
2980	0.7369
2989	0.7701
2998	0.7708
3007	0.7696
3016	0.7677
3025	0.765
3034	0.7626
3043	0.7622
3052	0.7621
3061	0.7619
3070	0.7891
3079	0.8313
3088	0.8566
3097	0.8675
3106	0.8792
3115	0.8836
3124	0.8862
3133	0.8877
3142	0.8889
3151	0.8891
3160	0.8893
3169	0.8895
3178	0.8896
3187	0.8898
3196	0.8899
3205	0.8897
3214	0.8895
3223	0.8893
3232	0.8887
3241	0.8879
3250	0.887
3259	0.8848
3268	0.8807
3277	0.8746
3286	0.868
3295	0.8611
3304	0.8543
3313	0.8478
3322	0.8417
3331	0.8356
3340	0.8289
3349	0.8211
3358	0.8134
3367	0.8066
3376	0.8005
3385	0.7945
3394	0.7747
3403	0.747
3412	0.7194
3421	0.693
3430	0.6852
3439	0.7021
3448	0.7423
3457	0.7823
3466	0.822
3475	0.8616
3484	0.8825
3493	0.8873
3502	0.8903
3511	0.892
3520	0.8932
3529	0.8944
3538	0.8953
3547	0.8961
3556	0.8968
3565	0.8976
3574	0.8984
3583	0.899
3592	0.8997
3601	0.9003
3610	0.9007
3619	0.9009
3628	0.901
3637	0.9011
3646	0.9013
3655	0.9015
3664	0.9016
3673	0.9017
3682	0.9019
3691	0.902
3700	0.9021
3709	0.9022
3718	0.9024
3727	0.9025
3736	0.9027
3745	0.9029
3754	0.9031
3763	0.9032
3772	0.9034
3781	0.9036
3790	0.9038
3799	0.9038
3808	0.9039
3817	0.9039
3826	0.9039
3835	0.904
3844	0.904
3853	0.904
3862	0.904
3871	0.9041
3880	0.9041
3889	0.9041
3898	0.9041
3907	0.9042
3916	0.9042
3925	0.9042
3934	0.9043
3943	0.9043
3952	0.9043
3961	0.9043
3970	0.9044
3979	0.9044
3988	0.9044
3997	0.9044
