Infrared Spectrum: P-NITRO CARBANILIC ACID, n-NONYL ESTER
Formula: C16 H24 N2 O4
CAS: 94373-85-0
State: SOLID (1.5 mg / 100 mg KBr)
Melting point: 109 C
Class: COBLENTZ
Instrument: Not specified, most likely a grating spectrometer.
Sampling: TRANSMISSION
Resolution: 4
Origin: CITRUS EXPERIMENT STATION, UNIVERSITY OF FLORIDA (G. EDWARDS)
MICROMETERS	TRANSMITTANCE
2.04	0.625
2.07316	0.625
2.10632	0.625
2.13948	0.625
2.17264	0.625
2.20579	0.626
2.23895	0.626
2.27211	0.626
2.30527	0.626
2.33843	0.628
2.37159	0.628
2.40475	0.628
2.43791	0.628
2.47107	0.628
2.50422	0.628
2.53738	0.628
2.57054	0.628
2.6037	0.625
2.63686	0.624
2.67002	0.622
2.70318	0.621
2.73634	0.618
2.7695	0.612
2.80266	0.612
2.83581	0.608
2.86897	0.597
2.90213	0.58
2.93529	0.316
2.96845	0.586
3.00161	0.617
3.03477	0.622
3.06793	0.624
3.10109	0.624
3.13424	0.621
3.1674	0.614
3.20056	0.613
3.23372	0.613
3.26688	0.612
3.30004	0.604
3.3332	0.507
3.36636	0.415
3.39952	0.362
3.43267	0.515
3.46583	0.467
3.49899	0.583
3.53215	0.634
3.56531	0.636
3.59847	0.641
3.63163	0.646
3.66479	0.648
3.69795	0.648
3.7311	0.649
3.76426	0.652
3.79742	0.652
3.83058	0.654
3.86374	0.654
3.8969	0.656
3.93006	0.657
3.96322	0.656
3.99638	0.656
4.02954	0.656
4.06269	0.657
4.09585	0.662
4.12901	0.66
4.16217	0.66
4.19533	0.667
4.22849	0.667
4.26165	0.669
4.29481	0.669
4.32797	0.669
4.36112	0.669
4.39428	0.669
4.42744	0.669
4.4606	0.669
4.49376	0.669
4.52692	0.67
4.56008	0.669
4.59324	0.671
4.6264	0.67
4.65955	0.67
4.69271	0.67
4.72587	0.67
4.75903	0.67
4.79219	0.671
4.82535	0.671
4.85851	0.671
4.89167	0.674
4.92483	0.675
4.95798	0.675
4.99114	0.675
5.0243	0.675
5.05746	0.674
5.09062	0.673
5.12378	0.671
5.15694	0.671
5.1901	0.675
5.22326	0.675
5.25641	0.675
5.28957	0.674
5.32273	0.673
5.35589	0.673
5.38905	0.673
5.42221	0.666
5.45537	0.661
5.48853	0.657
5.52169	0.656
5.55485	0.656
5.588	0.654
5.62116	0.65
5.65432	0.621
5.68748	0.494
5.72064	0.358
5.7538	0.466
5.78696	0.586
5.82012	0.657
5.85328	0.657
5.88643	0.656
5.91959	0.656
5.95275	0.654
5.98591	0.653
6.01907	0.645
6.05223	0.642
6.08539	0.633
6.11855	0.618
6.15171	0.527
6.18486	0.39
6.21802	0.426
6.25118	0.46
6.28434	0.584
6.3175	0.58
6.35066	0.545
6.38382	0.393
6.41698	0.223
6.45014	0.367
6.48329	0.472
6.51645	0.428
6.54961	0.326
6.58277	0.363
6.61593	0.49
6.64909	0.448
6.68225	0.545
6.71541	0.572
6.74857	0.527
6.78173	0.569
6.81488	0.621
6.84804	0.648
6.8812	0.65
6.91436	0.652
6.94752	0.649
6.98068	0.636
7.01384	0.59
7.047	0.571
7.08016	0.634
7.11331	0.63
7.14647	0.616
7.17963	0.594
7.21279	0.598
7.24595	0.61
7.27911	0.612
7.31227	0.59
7.34543	0.556
7.37859	0.415
7.41174	0.274
7.4449	0.205
7.47806	0.108
7.51122	0.172
7.54438	0.25
7.57754	0.39
7.6107	0.333
7.64386	0.476
7.67702	0.553
7.71017	0.597
7.74333	0.606
7.77649	0.601
7.80965	0.593
7.84281	0.571
7.87597	0.533
7.90913	0.557
7.94229	0.593
7.97545	0.553
8.00861	0.548
8.04176	0.512
8.07492	0.438
8.10808	0.332
8.14124	0.176
8.1744	0.074
8.20756	0.118
8.24072	0.195
8.27388	0.346
8.30704	0.459
8.34019	0.491
8.37335	0.517
8.40651	0.509
8.43967	0.498
8.47283	0.527
8.50599	0.61
8.53915	0.636
8.57231	0.644
8.60547	0.652
8.63862	0.661
8.67178	0.662
8.70494	0.662
8.7381	0.662
8.77126	0.66
8.80442	0.642
8.83758	0.601
8.87074	0.626
8.9039	0.64
8.93705	0.597
8.97021	0.458
9.00337	0.401
9.03653	0.516
9.06969	0.586
9.10285	0.593
9.13601	0.535
9.16917	0.552
9.20233	0.616
9.23548	0.642
9.26864	0.645
9.3018	0.644
9.33496	0.633
9.36812	0.597
9.40128	0.585
9.43444	0.583
9.4676	0.535
9.50076	0.424
9.53392	0.49
9.56707	0.585
9.60023	0.64
9.63339	0.66
9.66655	0.673
9.69971	0.679
9.73287	0.686
9.76603	0.689
9.79919	0.691
9.83235	0.693
9.8655	0.691
9.89866	0.691
9.93182	0.691
9.96498	0.693
9.99814	0.698
10.0313	0.699
10.0645	0.699
10.0976	0.699
10.1308	0.702
10.1639	0.702
10.1971	0.702
10.2303	0.699
10.2634	0.698
10.2966	0.691
10.3297	0.687
10.3629	0.693
10.396	0.701
10.4292	0.707
10.4624	0.717
10.4955	0.719
10.5287	0.721
10.5618	0.721
10.595	0.722
10.6282	0.722
10.6613	0.722
10.6945	0.723
10.7276	0.723
10.7608	0.723
10.794	0.723
10.8271	0.723
10.8603	0.723
10.8934	0.723
10.9266	0.723
10.9597	0.723
10.9929	0.723
11.0261	0.723
11.0592	0.723
11.0924	0.722
11.1255	0.721
11.1587	0.719
11.1919	0.718
11.225	0.718
11.2582	0.719
11.2913	0.719
11.3245	0.719
11.3577	0.717
11.3908	0.709
11.424	0.675
11.4571	0.594
11.4903	0.624
11.5235	0.679
11.5566	0.69
11.5898	0.679
11.6229	0.644
11.6561	0.524
11.6892	0.367
11.7224	0.397
11.7556	0.552
11.7887	0.656
11.8219	0.685
11.855	0.689
11.8882	0.682
11.9214	0.673
11.9545	0.67
11.9877	0.683
12.0208	0.701
12.054	0.709
12.0872	0.709
12.1203	0.71
12.1535	0.718
12.1866	0.722
12.2198	0.726
12.2529	0.726
12.2861	0.726
12.3193	0.726
12.3524	0.726
12.3856	0.726
12.4187	0.726
12.4519	0.726
12.4851	0.726
12.5182	0.726
12.5514	0.726
12.5845	0.726
12.6177	0.725
12.6509	0.723
12.684	0.721
12.7172	0.719
12.7503	0.714
12.7835	0.709
12.8166	0.697
12.8498	0.695
12.883	0.697
12.9161	0.691
12.9493	0.679
12.9824	0.649
13.0156	0.585
13.0488	0.517
13.0819	0.545
13.1151	0.632
13.1482	0.667
13.1814	0.681
13.2146	0.681
13.2477	0.675
13.2809	0.661
13.314	0.585
13.3472	0.44
13.3803	0.505
13.4135	0.633
13.4467	0.681
13.4798	0.693
13.513	0.702
13.5461	0.702
13.5793	0.702
13.6125	0.701
13.6456	0.701
13.6788	0.698
13.7119	0.694
13.7451	0.693
13.7783	0.689
13.8114	0.678
13.8446	0.661
13.8777	0.652
13.9109	0.661
13.9441	0.682
13.9772	0.693
14.0104	0.694
14.0435	0.694
14.0767	0.694
14.1098	0.691
14.143	0.69
14.1762	0.689
14.2093	0.689
14.2425	0.682
14.2756	0.671
14.3088	0.661
14.342	0.648
14.3751	0.62
14.4083	0.592
14.4414	0.58
14.4746	0.584
14.5078	0.598
14.5409	0.62
14.5741	0.638
14.6072	0.641
14.6404	0.641
14.6735	0.641
14.7067	0.638
14.7399	0.637
14.773	0.632
14.8062	0.628
14.8393	0.614
14.8725	0.597
14.9057	0.575
14.9388	0.571
14.972	0.588
15.0051	0.604
