Infrared Spectrum: O-NITRO CARBANILIC ACID, n-NONYL ESTER
Formula: C16 H24 N2 O4
CAS: 94373-84-9
State: SOLID (2 mg / 100 mg KBr)
Class: COBLENTZ
Instrument: Not specified, most likely a grating spectrometer.
Sampling: TRANSMISSION
Resolution: 4
Origin: CITRUS EXPERIMENT STATION, UNIVERSITY OF FLORIDA (G. EDWARDS)
MICROMETERS	TRANSMITTANCE
2.033	0.411
2.06616	0.412
2.09932	0.419
2.13248	0.42
2.16564	0.421
2.19879	0.42
2.23195	0.416
2.26511	0.42
2.29827	0.419
2.33143	0.425
2.36459	0.429
2.39775	0.431
2.43091	0.432
2.46407	0.427
2.49722	0.437
2.53038	0.44
2.56354	0.444
2.5967	0.437
2.62986	0.447
2.66302	0.44
2.69618	0.449
2.72934	0.455
2.7625	0.441
2.79566	0.444
2.82881	0.444
2.86197	0.439
2.89513	0.423
2.92829	0.373
2.96145	0.4
2.99461	0.451
3.02777	0.46
3.06093	0.469
3.09409	0.469
3.12724	0.463
3.1604	0.465
3.19356	0.465
3.22672	0.471
3.25988	0.461
3.29304	0.453
3.3262	0.387
3.35936	0.299
3.39252	0.291
3.42567	0.405
3.45883	0.365
3.49199	0.463
3.52515	0.499
3.55831	0.506
3.59147	0.51
3.62463	0.519
3.65779	0.519
3.69095	0.511
3.7241	0.52
3.75726	0.524
3.79042	0.531
3.82358	0.542
3.85674	0.534
3.8899	0.532
3.92306	0.539
3.95622	0.542
3.98938	0.539
4.02254	0.54
4.05569	0.542
4.08885	0.542
4.12201	0.547
4.15517	0.552
4.18833	0.564
4.22149	0.575
4.25465	0.572
4.28781	0.571
4.32097	0.564
4.35412	0.566
4.38728	0.57
4.42044	0.566
4.4536	0.562
4.48676	0.574
4.51992	0.574
4.55308	0.579
4.58624	0.579
4.6194	0.584
4.65255	0.582
4.68571	0.586
4.71887	0.59
4.75203	0.588
4.78519	0.594
4.81835	0.592
4.85151	0.599
4.88467	0.603
4.91783	0.607
4.95098	0.596
4.98414	0.602
5.0173	0.61
5.05046	0.602
5.08362	0.606
5.11678	0.602
5.14994	0.615
5.1831	0.611
5.21626	0.619
5.24941	0.615
5.28257	0.619
5.31573	0.618
5.34889	0.62
5.38205	0.615
5.41521	0.614
5.44837	0.607
5.48153	0.61
5.51469	0.61
5.54785	0.61
5.581	0.591
5.61416	0.563
5.64732	0.485
5.68048	0.301
5.71364	0.272
5.7468	0.472
5.77996	0.564
5.81312	0.607
5.84628	0.63
5.87943	0.632
5.91259	0.63
5.94575	0.632
5.97891	0.64
6.01207	0.616
6.04523	0.612
6.07839	0.603
6.11155	0.582
6.14471	0.473
6.17786	0.337
6.21102	0.503
6.24418	0.524
6.27734	0.327
6.3105	0.472
6.34366	0.6
6.37682	0.575
6.40998	0.55
6.44314	0.5
6.47629	0.496
6.50945	0.389
6.54261	0.221
6.57577	0.176
6.60893	0.16
6.64209	0.291
6.67525	0.453
6.70841	0.56
6.74157	0.542
6.77473	0.463
6.80788	0.399
6.84104	0.381
6.8742	0.44
6.90736	0.371
6.94052	0.329
6.97368	0.409
7.00684	0.469
7.04	0.56
7.07316	0.586
7.10631	0.611
7.13947	0.599
7.17263	0.591
7.20579	0.586
7.23895	0.59
7.27211	0.61
7.30527	0.591
7.33843	0.552
7.37159	0.441
7.40474	0.249
7.4379	0.248
7.47106	0.432
7.50422	0.528
7.53738	0.511
7.57054	0.479
7.6037	0.534
7.63686	0.539
7.67002	0.532
7.70317	0.524
7.73633	0.477
7.76949	0.424
7.80265	0.403
7.83581	0.435
7.86897	0.475
7.90213	0.524
7.93529	0.514
7.96845	0.413
8.00161	0.308
8.03476	0.209
8.06792	0.277
8.10108	0.448
8.13424	0.528
8.1674	0.547
8.20056	0.512
8.23372	0.435
8.26688	0.317
8.30004	0.201
8.33319	0.22
8.36635	0.325
8.39951	0.492
8.43267	0.58
8.46583	0.622
8.49899	0.644
8.53215	0.634
8.56531	0.563
8.59847	0.55
8.63162	0.602
8.66478	0.616
8.69794	0.563
8.7311	0.64
8.76426	0.692
8.79742	0.707
8.83058	0.722
8.86374	0.714
8.8969	0.712
8.93005	0.718
8.96321	0.724
8.99637	0.719
9.02953	0.715
9.06269	0.711
9.09585	0.682
9.12901	0.644
9.16217	0.554
9.19533	0.516
9.22848	0.564
9.26164	0.612
9.2948	0.634
9.32796	0.627
9.36112	0.603
9.39428	0.59
9.42744	0.571
9.4606	0.558
9.49376	0.562
9.52692	0.575
9.56007	0.559
9.59323	0.538
9.62639	0.582
9.65955	0.64
9.69271	0.684
9.72587	0.704
9.75903	0.73
9.79219	0.742
9.82535	0.744
9.8585	0.761
9.89166	0.767
9.92482	0.769
9.95798	0.77
9.99114	0.77
10.0243	0.77
10.0575	0.77
10.0906	0.77
10.1238	0.771
10.1569	0.769
10.1901	0.767
10.2233	0.762
10.2564	0.758
10.2896	0.747
10.3227	0.751
10.3559	0.758
10.389	0.754
10.4222	0.748
10.4554	0.753
10.4885	0.763
10.5217	0.774
10.5548	0.785
10.588	0.783
10.6212	0.793
10.6543	0.79
10.6875	0.793
10.7206	0.794
10.7538	0.797
10.787	0.795
10.8201	0.805
10.8533	0.803
10.8864	0.798
10.9196	0.802
10.9527	0.799
10.9859	0.806
11.0191	0.805
11.0522	0.806
11.0854	0.805
11.1185	0.805
11.1517	0.805
11.1849	0.805
11.218	0.805
11.2512	0.809
11.2843	0.807
11.3175	0.807
11.3507	0.807
11.3838	0.807
11.417	0.797
11.4501	0.783
11.4833	0.762
11.5165	0.688
11.5496	0.659
11.5828	0.672
11.6159	0.726
11.6491	0.769
11.6822	0.783
11.7154	0.783
11.7486	0.791
11.7817	0.787
11.8149	0.782
11.848	0.774
11.8812	0.773
11.9144	0.766
11.9475	0.769
11.9807	0.773
12.0138	0.782
12.047	0.787
12.0802	0.787
12.1133	0.785
12.1465	0.799
12.1796	0.807
12.2128	0.813
12.2459	0.813
12.2791	0.814
12.3123	0.813
12.3454	0.814
12.3786	0.813
12.4117	0.81
12.4449	0.805
12.4781	0.806
12.5112	0.805
12.5444	0.805
12.5775	0.801
12.6107	0.783
12.6439	0.758
12.677	0.695
12.7102	0.638
12.7433	0.642
12.7765	0.648
12.8096	0.678
12.8428	0.714
12.876	0.746
12.9091	0.758
12.9423	0.754
12.9754	0.718
13.0086	0.679
13.0418	0.66
13.0749	0.656
13.1081	0.678
13.1412	0.712
13.1744	0.742
13.2076	0.761
13.2407	0.763
13.2739	0.757
13.307	0.74
13.3402	0.7
13.3733	0.644
13.4065	0.544
13.4397	0.419
13.4728	0.389
13.506	0.461
13.5391	0.542
13.5723	0.611
13.6055	0.663
13.6386	0.696
13.6718	0.716
13.7049	0.723
13.7381	0.731
13.7713	0.732
13.8044	0.732
13.8376	0.732
13.8707	0.712
13.9039	0.723
13.9371	0.738
13.9702	0.753
14.0034	0.759
14.0365	0.762
14.0697	0.77
14.1028	0.769
14.136	0.766
14.1692	0.763
14.2023	0.758
14.2355	0.754
14.2686	0.747
14.3018	0.742
14.335	0.735
14.3681	0.726
14.4013	0.71
14.4344	0.691
14.4676	0.676
14.5008	0.663
14.5339	0.652
14.5671	0.67
14.6002	0.672
14.6334	0.666
14.6665	0.651
14.6997	0.64
14.7329	0.63
14.766	0.628
14.7992	0.632
14.8323	0.632
14.8655	0.644
14.8987	0.634
14.9318	0.608
14.965	0.611
14.9981	0.616
