Infrared Spectrum: M-NITRO CARBANILIC ACID, n-NONYL ESTER
Formula: C16 H24 N2 O4
CAS: 94373-83-8
State: SOLID (1.5 mg / 200 mg KBr)
Class: COBLENTZ
Instrument: Not specified, most likely a grating spectrometer.
Sampling: TRANSMISSION
Resolution: 4
Origin: CITRUS EXPERIMENT STATION, UNIVERSITY OF FLORIDA (G. EDWARDS)
MICROMETERS	TRANSMITTANCE
2.04	0.288
2.07319	0.289
2.10638	0.297
2.13957	0.301
2.17276	0.306
2.20595	0.308
2.23914	0.31
2.27233	0.312
2.30552	0.318
2.33871	0.324
2.3719	0.329
2.40509	0.332
2.43828	0.333
2.47147	0.334
2.50466	0.345
2.53785	0.356
2.57103	0.358
2.60422	0.357
2.63741	0.37
2.6706	0.374
2.70379	0.374
2.73698	0.374
2.77017	0.37
2.80336	0.369
2.83655	0.364
2.86974	0.341
2.90293	0.298
2.93612	0.221
2.96931	0.364
3.0025	0.386
3.03569	0.394
3.06888	0.396
3.10207	0.397
3.13526	0.397
3.16845	0.398
3.20164	0.404
3.23483	0.401
3.26802	0.396
3.30121	0.368
3.3344	0.312
3.36759	0.201
3.40078	0.2
3.43397	0.29
3.46716	0.29
3.50035	0.397
3.53354	0.445
3.56672	0.452
3.59991	0.458
3.6331	0.473
3.66629	0.476
3.69948	0.478
3.73267	0.481
3.76586	0.485
3.79905	0.486
3.83224	0.497
3.86543	0.501
3.89862	0.502
3.93181	0.504
3.965	0.505
3.99819	0.508
4.03138	0.516
4.06457	0.521
4.09776	0.524
4.13095	0.525
4.16414	0.534
4.19733	0.542
4.23052	0.544
4.26371	0.542
4.2969	0.542
4.33009	0.546
4.36328	0.546
4.39647	0.549
4.42966	0.552
4.46285	0.553
4.49604	0.554
4.52923	0.556
4.56242	0.56
4.5956	0.561
4.62879	0.569
4.66198	0.57
4.69517	0.572
4.72836	0.58
4.76155	0.585
4.79474	0.588
4.82793	0.589
4.86112	0.589
4.89431	0.592
4.9275	0.592
4.96069	0.593
4.99388	0.594
5.02707	0.596
5.06026	0.597
5.09345	0.601
5.12664	0.602
5.15983	0.601
5.19302	0.601
5.22621	0.604
5.2594	0.606
5.29259	0.609
5.32578	0.612
5.35897	0.616
5.39216	0.616
5.42535	0.608
5.45854	0.602
5.49173	0.594
5.52492	0.586
5.55811	0.582
5.59129	0.556
5.62448	0.512
5.65767	0.473
5.69086	0.374
5.72405	0.325
5.75724	0.258
5.79043	0.28
5.82362	0.397
5.85681	0.549
5.89	0.573
5.92319	0.581
5.95638	0.581
5.98957	0.57
6.02276	0.541
6.05595	0.532
6.08914	0.518
6.12233	0.518
6.15552	0.521
6.18871	0.506
6.2219	0.498
6.25509	0.506
6.28828	0.486
6.32147	0.357
6.35466	0.305
6.38785	0.284
6.42104	0.31
6.45423	0.417
6.48742	0.445
6.52061	0.545
6.5538	0.604
6.58699	0.61
6.62017	0.608
6.65336	0.588
6.68655	0.552
6.71974	0.532
6.75293	0.552
6.78612	0.553
6.81931	0.562
6.8525	0.564
6.88569	0.55
6.91888	0.542
6.95207	0.569
6.98526	0.646
7.01845	0.669
7.05164	0.67
7.08483	0.67
7.11802	0.666
7.15121	0.657
7.1844	0.64
7.21759	0.597
7.25078	0.525
7.28397	0.457
7.31716	0.32
7.35035	0.172
7.38354	0.193
7.41673	0.294
7.44992	0.38
7.48311	0.433
7.5163	0.456
7.54949	0.548
7.58268	0.617
7.61587	0.624
7.64905	0.612
7.68224	0.546
7.71543	0.461
7.74862	0.4
7.78181	0.486
7.815	0.633
7.84819	0.66
7.88138	0.646
7.91457	0.601
7.94776	0.513
7.98095	0.433
8.01414	0.333
8.04733	0.218
8.08052	0.281
8.11371	0.445
8.1469	0.564
8.18009	0.618
8.21328	0.662
8.24647	0.692
8.27966	0.726
8.31285	0.754
8.34604	0.761
8.37923	0.764
8.41242	0.766
8.44561	0.762
8.4788	0.758
8.51199	0.746
8.54518	0.742
8.57837	0.748
8.61156	0.77
8.64474	0.782
8.67793	0.785
8.71112	0.789
8.74431	0.79
8.7775	0.794
8.81069	0.794
8.84388	0.794
8.87707	0.792
8.91026	0.784
8.94345	0.769
8.97664	0.742
9.00983	0.705
9.04302	0.657
9.07621	0.584
9.1094	0.544
9.14259	0.577
9.17578	0.622
9.20897	0.694
9.24216	0.724
9.27535	0.721
9.30854	0.701
9.34173	0.644
9.37492	0.6
9.40811	0.624
9.4413	0.66
9.47449	0.748
9.50768	0.802
9.54087	0.832
9.57406	0.852
9.60725	0.864
9.64044	0.873
9.67362	0.881
9.70681	0.885
9.74	0.885
9.77319	0.885
9.80638	0.885
9.83957	0.884
9.87276	0.884
9.90595	0.884
9.93914	0.888
9.97233	0.893
10.0055	0.897
10.0387	0.901
10.0719	0.902
10.1051	0.904
10.1383	0.905
10.1715	0.901
10.2047	0.9
10.2378	0.901
10.271	0.902
10.3042	0.906
10.3374	0.909
10.3706	0.912
10.4038	0.91
10.437	0.906
10.4702	0.892
10.5034	0.886
10.5366	0.876
10.5697	0.844
10.6029	0.8
10.6361	0.758
10.6693	0.774
10.7025	0.832
10.7357	0.889
10.7689	0.912
10.8021	0.917
10.8353	0.924
10.8685	0.924
10.9016	0.92
10.9348	0.918
10.968	0.917
11.0012	0.92
11.0344	0.92
11.0676	0.916
11.1008	0.901
11.134	0.885
11.1672	0.88
11.2003	0.854
11.2335	0.818
11.2667	0.726
11.2999	0.646
11.3331	0.757
11.3663	0.897
11.3995	0.932
11.4327	0.941
11.4659	0.942
11.4991	0.949
11.5322	0.95
11.5654	0.95
11.5986	0.95
11.6318	0.95
11.665	0.95
11.6982	0.949
11.7314	0.949
11.7646	0.949
11.7978	0.949
11.831	0.949
11.8641	0.948
11.8973	0.942
11.9305	0.934
11.9637	0.925
11.9969	0.9
12.0301	0.853
12.0633	0.8
12.0965	0.774
12.1297	0.829
12.1629	0.908
12.196	0.925
12.2292	0.929
12.2624	0.924
12.2956	0.916
12.3288	0.902
12.362	0.865
12.3952	0.829
12.4284	0.756
12.4616	0.712
12.4947	0.741
12.5279	0.865
12.5611	0.917
12.5943	0.934
12.6275	0.932
12.6607	0.926
12.6939	0.925
12.7271	0.917
12.7603	0.912
12.7935	0.892
12.8266	0.866
12.8598	0.841
12.893	0.826
12.9262	0.797
12.9594	0.736
12.9926	0.661
13.0258	0.537
13.059	0.53
13.0922	0.606
13.1254	0.673
13.1585	0.726
13.1917	0.8
13.2249	0.86
13.2581	0.876
13.2913	0.877
13.3245	0.87
13.3577	0.85
13.3909	0.83
13.4241	0.801
13.4572	0.766
13.4904	0.682
13.5236	0.568
13.5568	0.442
13.59	0.426
13.6232	0.572
13.6564	0.728
13.6896	0.802
13.7228	0.826
13.756	0.828
13.7891	0.826
13.8223	0.828
13.8555	0.83
13.8887	0.866
13.9219	0.88
13.9551	0.88
13.9883	0.877
14.0215	0.876
14.0547	0.872
14.0879	0.872
14.121	0.87
14.1542	0.869
14.1874	0.87
14.2206	0.866
14.2538	0.86
14.287	0.852
14.3202	0.844
14.3534	0.837
14.3866	0.824
14.4197	0.8
14.4529	0.77
14.4861	0.742
14.5193	0.718
14.5525	0.697
14.5857	0.685
14.6189	0.693
14.6521	0.701
14.6853	0.713
14.7185	0.713
14.7516	0.706
14.7848	0.69
14.818	0.676
14.8512	0.662
14.8844	0.661
14.9176	0.673
14.9508	0.7
14.984	0.713
15.0172	0.713
