Infrared Spectrum: Dyfonate
Formula: C 10 H 15 O P S 2
CAS: 944-22-9
State: gas
Instrument: HP-GC/MS/IRD
Origin: NIST Mass Spectrometry Data Center
1/CM	ABSORBANCE
550	0.001864
562	0.00016
574	0.000632
586	0.002424
598	0.009008
610	0.035184
622	0.042104
634	0.018192
646	0.010112
658	0.005664
670	0.006144
682	0.013552
694	0.020752
706	0.01632
718	0.01808
730	0.036112
742	0.060856
754	0.03532
766	0.020624
778	0.031576
790	0.046856
802	0.039848
814	0.017496
826	0.006632
838	0.003256
850	0.002224
862	0.001984
874	0.002152
886	0.002856
898	0.00484
910	0.009744
922	0.020208
934	0.043664
946	0.050384
958	0.026768
970	0.013696
982	0.012872
994	0.024832
1006	0.047008
1018	0.068224
1030	0.078088
1042	0.066984
1054	0.046816
1066	0.027032
1078	0.018456
1090	0.01604
1102	0.01196
1114	0.007632
1126	0.005976
1138	0.005504
1150	0.005064
1162	0.0048
1174	0.004136
1186	0.00284
1198	0.001224
1210	0.0008
1222	0.001784
1234	0.002176
1246	0.001568
1258	0.002232
1270	0.001592
1282	0.001104
1294	0.00132
1306	0.001592
1318	0.00136
1330	0.001264
1342	0.0012
1354	0.00164
1366	0.002752
1378	0.005888
1390	0.011256
1402	0.008536
1414	0.006128
1426	0.005176
1438	0.008496
1450	0.008544
1462	0.010056
1474	0.01452
1486	0.009528
1498	0.002688
1510	0.001488
1522	0.001176
1534	0.000944
1546	0.000912
1558	0.001376
1570	0.003408
1582	0.006104
1594	0.002256
1606	0.000936
1618	0.000688
1630	0.000696
1642	0.001008
1654	0.00116
1666	0.000872
1678	0.000672
1690	0.0006
1702	0.000616
1714	0.00068
1726	0.000912
1738	0.00116
1750	0.001128
1762	0.000992
1774	0.001096
1786	0.001304
1798	0.00132
1810	0.001032
1822	0.00088
1834	0.000664
1846	0.000632
1858	0.000912
1870	0.0012
1882	0.00116
1894	0.000752
1906	0.000328
1918	0.000352
1930	0.00072
1942	0.001176
1954	0.001192
1966	0.0008
1978	0.00036
1990	0.000256
2002	0.000192
2014	0.000152
2026	0.000136
2038	8.8e-05
2050	0.000104
2062	0.00012
2074	0.000128
2086	0.00016
2098	0.00016
2110	0.00012
2122	0.00016
2134	0.00016
2146	0.000152
2158	0.00016
2170	0.000144
2182	0.000104
2194	0.000104
2206	0.000144
2218	0.000152
2230	0.000208
2242	0.000248
2254	0.000232
2266	0.000192
2278	0.000144
2290	0.000112
2302	0.000184
2314	0.000392
2326	0.000312
2338	0.000296
2350	0.00024
2362	0.0002
2374	0.0002
2386	0.000208
2398	0.000264
2410	0.000216
2422	0.000272
2434	0.000248
2446	0.000224
2458	0.000256
2470	0.000232
2482	0.00016
2494	0.000136
2506	0.000136
2518	0.000104
2530	8.8e-05
2542	0.000104
2554	0.000128
2566	0.000176
2578	0.000216
2590	0.000176
2602	0.00024
2614	0.0002
2626	0.000168
2638	0.000224
2650	0.000336
2662	0.000384
2674	0.000328
2686	0.000264
2698	0.000304
2710	0.00032
2722	0.000416
2734	0.00052
2746	0.000688
2758	0.000696
2770	0.000784
2782	0.0008
2794	0.00084
2806	0.001056
2818	0.001248
2830	0.001536
2842	0.001808
2854	0.002304
2866	0.00364
2878	0.006752
2890	0.01056
2902	0.010376
2914	0.010464
2926	0.012432
2938	0.019712
2950	0.02196
2962	0.014912
2974	0.01972
2986	0.02808
2998	0.017816
3010	0.009544
3022	0.007104
3034	0.005352
3046	0.004936
3058	0.0092
3070	0.017728
3082	0.012696
3094	0.006328
3106	0.002336
3118	0.0016
3130	0.001496
3142	0.001488
3154	0.00128
3166	0.000904
3178	0.000656
3190	0.000584
3202	0.000512
3214	0.000472
3226	0.000416
3238	0.000336
3250	0.000352
3262	0.00028
3274	0.000216
3286	0.000232
3298	0.000176
3310	0.000192
3322	0.00024
3334	0.000184
3346	0.000224
3358	0.000208
3370	0.000208
3382	0.000216
3394	0.000216
3406	0.000184
3418	0.000168
3430	0.000176
3442	0.00012
3454	0.000152
3466	0.000128
3478	0.000128
3490	0.00016
3502	0.000128
3514	0.000144
3526	0.000168
3538	0.000112
3550	8.8e-05
3562	0.000168
3574	0.0002
3586	0.000216
3598	0.000168
3610	0.000224
3622	0.000192
3634	0.000152
3646	0.00024
3658	0.000232
3670	0.000168
3682	0.000312
3694	0.000304
3706	0.000352
3718	0.000288
3730	0.00028
3742	0.000304
3754	0.000408
3766	0.000376
3778	0.000304
3790	0.000272
3802	0.000264
3814	0.000192
3826	0.000288
3838	0.00024
