Infrared Spectrum: P-NITRO CARBANILIC ACID, n-DODECYL ESTER
Formula: C19 H30 N2 O4
CAS: 94432-01-6
State: SOLID (1.5 mg / 100 mg KBr)
Melting point: 110 C
Class: COBLENTZ
Instrument: Not specified, most likely a grating spectrometer.
Sampling: TRANSMISSION
Resolution: 4
Origin: CITRUS EXPERIMENT STATION, UNIVERSITY OF FLORIDA (G. EDWARDS)
MICROMETERS	TRANSMITTANCE
2.066	0.782
2.09921	0.781
2.13242	0.782
2.16562	0.782
2.19883	0.782
2.23204	0.782
2.26525	0.782
2.29845	0.782
2.33166	0.782
2.36487	0.782
2.39808	0.782
2.43128	0.781
2.46449	0.781
2.4977	0.781
2.53091	0.781
2.56412	0.781
2.59732	0.781
2.63053	0.78
2.66374	0.78
2.69695	0.778
2.73015	0.776
2.76336	0.772
2.79657	0.769
2.82978	0.766
2.86298	0.76
2.89619	0.75
2.9294	0.488
2.96261	0.743
2.99581	0.78
3.02902	0.781
3.06223	0.782
3.09544	0.782
3.12865	0.781
3.16185	0.776
3.19506	0.773
3.22827	0.772
3.26148	0.768
3.29468	0.761
3.32789	0.732
3.3611	0.559
3.39431	0.44
3.42751	0.656
3.46072	0.581
3.49393	0.713
3.52714	0.78
3.56035	0.789
3.59355	0.79
3.62676	0.793
3.65997	0.794
3.69318	0.8
3.72638	0.798
3.75959	0.798
3.7928	0.8
3.82601	0.802
3.85921	0.802
3.89242	0.802
3.92563	0.802
3.95884	0.802
3.99205	0.802
4.02525	0.802
4.05846	0.805
4.09167	0.809
4.12488	0.812
4.15808	0.816
4.19129	0.817
4.2245	0.818
4.25771	0.818
4.29091	0.817
4.32412	0.817
4.35733	0.817
4.39054	0.817
4.42374	0.817
4.45695	0.817
4.49016	0.82
4.52337	0.818
4.55658	0.82
4.58978	0.824
4.62299	0.824
4.6562	0.824
4.68941	0.824
4.72261	0.824
4.75582	0.825
4.78903	0.825
4.82224	0.825
4.85544	0.825
4.88865	0.825
4.92186	0.825
4.95507	0.825
4.98828	0.826
5.02148	0.828
5.05469	0.826
5.0879	0.826
5.12111	0.826
5.15431	0.826
5.18752	0.828
5.22073	0.828
5.25394	0.828
5.28714	0.828
5.32035	0.826
5.35356	0.825
5.38677	0.821
5.41997	0.818
5.45318	0.816
5.48639	0.812
5.5196	0.806
5.55281	0.806
5.58601	0.804
5.61922	0.802
5.65243	0.773
5.68564	0.665
5.71884	0.521
5.75205	0.641
5.78526	0.749
5.81847	0.814
5.85167	0.818
5.88488	0.818
5.91809	0.818
5.9513	0.818
5.98451	0.817
6.01771	0.806
6.05092	0.804
6.08413	0.796
6.11734	0.789
6.15054	0.724
6.18375	0.569
6.21696	0.631
6.25017	0.62
6.28337	0.758
6.31658	0.744
6.34979	0.712
6.383	0.507
6.41621	0.39
6.44941	0.561
6.48262	0.656
6.51583	0.593
6.54904	0.48
6.58224	0.499
6.61545	0.653
6.64866	0.639
6.68187	0.715
6.71507	0.737
6.74828	0.688
6.78149	0.719
6.8147	0.776
6.8479	0.792
6.88111	0.801
6.91432	0.805
6.94753	0.806
6.98074	0.792
7.01394	0.737
7.04715	0.74
7.08036	0.801
7.11357	0.793
7.14677	0.784
7.17998	0.777
7.21319	0.777
7.2464	0.78
7.2796	0.778
7.31281	0.747
7.34602	0.708
7.37923	0.613
7.41244	0.491
7.44564	0.375
7.47885	0.249
7.51206	0.362
7.54527	0.448
7.57847	0.595
7.61168	0.535
7.64489	0.681
7.6781	0.74
7.7113	0.762
7.74451	0.762
7.77772	0.757
7.81093	0.749
7.84414	0.729
7.87734	0.711
7.91055	0.741
7.94376	0.754
7.97697	0.733
8.01017	0.707
8.04338	0.676
8.07659	0.613
8.1098	0.494
8.143	0.311
8.17621	0.178
8.20942	0.284
8.24263	0.459
8.27583	0.585
8.30904	0.663
8.34225	0.68
8.37546	0.709
8.40867	0.7
8.44187	0.691
8.47508	0.713
8.50829	0.79
8.5415	0.804
8.5747	0.81
8.60791	0.816
8.64112	0.826
8.67433	0.828
8.70753	0.83
8.74074	0.83
8.77395	0.824
8.80716	0.806
8.84037	0.778
8.87357	0.793
8.90678	0.794
8.93999	0.741
8.9732	0.637
9.0064	0.612
9.03961	0.688
9.07282	0.736
9.10603	0.786
9.13923	0.802
9.17244	0.812
9.20565	0.814
9.23886	0.806
9.27206	0.79
9.30527	0.754
9.33848	0.728
9.37169	0.703
9.4049	0.724
9.4381	0.724
9.47131	0.725
9.50452	0.733
9.53773	0.772
9.57093	0.786
9.60414	0.797
9.63735	0.81
9.67056	0.82
9.70376	0.828
9.73697	0.849
9.77018	0.852
9.80339	0.853
9.8366	0.854
9.8698	0.854
9.90301	0.854
9.93622	0.854
9.96943	0.854
10.0026	0.856
10.0358	0.857
10.069	0.857
10.1023	0.857
10.1355	0.856
10.1687	0.856
10.2019	0.856
10.2351	0.856
10.2683	0.854
10.3015	0.849
10.3347	0.848
10.3679	0.853
10.4011	0.857
10.4343	0.865
10.4675	0.872
10.5007	0.874
10.534	0.877
10.5672	0.877
10.6004	0.876
10.6336	0.877
10.6668	0.876
10.7	0.876
10.7332	0.876
10.7664	0.877
10.7996	0.877
10.8328	0.877
10.866	0.877
10.8992	0.878
10.9324	0.878
10.9657	0.877
10.9989	0.876
11.0321	0.874
11.0653	0.874
11.0985	0.873
11.1317	0.873
11.1649	0.872
11.1981	0.872
11.2313	0.872
11.2645	0.872
11.2977	0.873
11.3309	0.872
11.3641	0.868
11.3974	0.858
11.4306	0.816
11.4638	0.748
11.497	0.797
11.5302	0.838
11.5634	0.84
11.5966	0.828
11.6298	0.768
11.663	0.631
11.6962	0.561
11.7294	0.667
11.7626	0.785
11.7958	0.833
11.8291	0.845
11.8623	0.845
11.8955	0.838
11.9287	0.833
11.9619	0.833
11.9951	0.841
12.0283	0.853
12.0615	0.862
12.0947	0.862
12.1279	0.868
12.1611	0.87
12.1943	0.873
12.2275	0.874
12.2608	0.874
12.294	0.874
12.3272	0.874
12.3604	0.874
12.3936	0.874
12.4268	0.873
12.46	0.872
12.4932	0.87
12.5264	0.869
12.5596	0.87
12.5928	0.87
12.626	0.87
12.6592	0.87
12.6925	0.868
12.7257	0.865
12.7589	0.865
12.7921	0.864
12.8253	0.86
12.8585	0.854
12.8917	0.836
12.9249	0.806
12.9581	0.761
12.9913	0.757
13.0245	0.75
13.0577	0.739
13.0909	0.739
13.1242	0.76
13.1574	0.802
13.1906	0.826
13.2238	0.83
13.257	0.829
13.2902	0.788
13.3234	0.693
13.3566	0.657
13.3898	0.727
13.423	0.805
13.4562	0.828
13.4894	0.83
13.5226	0.83
13.5559	0.83
13.5891	0.83
13.6223	0.829
13.6555	0.828
13.6887	0.829
13.7219	0.826
13.7551	0.824
13.7883	0.816
13.8215	0.809
13.8547	0.788
13.8879	0.77
13.9211	0.774
13.9543	0.788
13.9876	0.806
14.0208	0.812
14.054	0.81
14.0872	0.81
14.1204	0.808
14.1536	0.805
14.1868	0.802
14.22	0.793
14.2532	0.786
14.2864	0.778
14.3196	0.762
14.3528	0.749
14.386	0.723
14.4193	0.699
14.4525	0.693
14.4857	0.695
14.5189	0.703
14.5521	0.719
14.5853	0.723
14.6185	0.724
14.6517	0.724
14.6849	0.721
14.7181	0.721
14.7513	0.717
14.7845	0.712
14.8177	0.708
14.851	0.697
14.8842	0.679
14.9174	0.651
14.9506	0.653
14.9838	0.691
15.017	0.728
15.0502	0.72
