Infrared Spectrum: O-NITRO CARBANILIC ACID, n-DODECYL ESTER
Formula: C19 H30 N2 O4
CAS: 94432-00-5
State: SOLID (1.5 mg / 100 mg KBr)
Melting point: 51-51.5 C
Class: COBLENTZ
Instrument: Not specified, most likely a grating spectrometer.
Sampling: TRANSMISSION
Resolution: 4
Origin: CITRUS EXPERIMENT STATION, UNIVERSITY OF FLORIDA (G. EDWARDS)
MICROMETERS	TRANSMITTANCE
2.033	0.921
2.06614	0.918
2.09929	0.912
2.13243	0.912
2.16557	0.92
2.19872	0.916
2.23186	0.914
2.26501	0.913
2.29815	0.91
2.33129	0.918
2.36444	0.909
2.39758	0.92
2.43072	0.921
2.46387	0.925
2.49701	0.928
2.53015	0.918
2.5633	0.926
2.59644	0.921
2.62959	0.921
2.66273	0.934
2.69587	0.93
2.72902	0.932
2.76216	0.925
2.7953	0.925
2.82845	0.929
2.86159	0.924
2.89474	0.91
2.92788	0.912
2.96102	0.837
2.99417	0.821
3.02731	0.912
3.06045	0.93
3.0936	0.929
3.12674	0.93
3.15988	0.921
3.19303	0.914
3.22617	0.922
3.25932	0.925
3.29246	0.924
3.3256	0.901
3.35875	0.696
3.39189	0.486
3.42503	0.664
3.45818	0.689
3.49132	0.627
3.52446	0.909
3.55761	0.916
3.59075	0.932
3.6239	0.929
3.65704	0.932
3.69018	0.936
3.72333	0.929
3.75647	0.934
3.78961	0.937
3.82276	0.94
3.8559	0.946
3.88904	0.937
3.92219	0.942
3.95533	0.945
3.98848	0.94
4.02162	0.938
4.05476	0.942
4.08791	0.942
4.12105	0.94
4.15419	0.942
4.18734	0.936
4.22048	0.946
4.25363	0.961
4.28677	0.965
4.31991	0.956
4.35306	0.948
4.3862	0.952
4.41934	0.949
4.45249	0.946
4.48563	0.954
4.51877	0.946
4.55192	0.948
4.58506	0.952
4.61821	0.953
4.65135	0.952
4.68449	0.944
4.71764	0.957
4.75078	0.953
4.78392	0.949
4.81707	0.95
4.85021	0.957
4.88335	0.95
4.9165	0.949
4.94964	0.95
4.98279	0.948
5.01593	0.949
5.04907	0.95
5.08222	0.95
5.11536	0.946
5.1485	0.954
5.18165	0.946
5.21479	0.965
5.24794	0.954
5.28108	0.952
5.31422	0.952
5.34737	0.949
5.38051	0.948
5.41365	0.944
5.4468	0.938
5.47994	0.936
5.51308	0.933
5.54623	0.93
5.57937	0.937
5.61252	0.914
5.64566	0.905
5.6788	0.822
5.71195	0.592
5.74509	0.557
5.77823	0.816
5.81138	0.906
5.84452	0.912
5.87766	0.917
5.91081	0.929
5.94395	0.934
5.9771	0.929
6.01024	0.926
6.04338	0.924
6.07653	0.916
6.10967	0.873
6.14281	0.8
6.17596	0.605
6.2091	0.636
6.24224	0.802
6.27539	0.648
6.30853	0.786
6.34168	0.893
6.37482	0.882
6.40796	0.82
6.44111	0.786
6.47425	0.749
6.50739	0.656
6.54054	0.443
6.57368	0.375
6.60683	0.523
6.63997	0.571
6.67311	0.709
6.70626	0.754
6.7394	0.653
6.77254	0.729
6.80569	0.699
6.83883	0.732
6.87197	0.752
6.90512	0.711
6.93826	0.729
6.97141	0.782
7.00455	0.828
7.03769	0.868
7.07084	0.884
7.10398	0.894
7.13712	0.894
7.17027	0.872
7.20341	0.857
7.23655	0.874
7.2697	0.878
7.30284	0.854
7.33599	0.826
7.36913	0.754
7.40227	0.584
7.43542	0.326
7.46856	0.319
7.5017	0.523
7.53485	0.675
7.56799	0.733
7.60113	0.753
7.63428	0.764
7.66742	0.762
7.70057	0.748
7.73371	0.737
7.76685	0.736
7.8	0.735
7.83314	0.729
7.86628	0.756
7.89943	0.765
7.93257	0.75
7.96572	0.695
7.99886	0.535
8.032	0.326
8.06515	0.403
8.09829	0.592
8.13143	0.725
8.16458	0.793
8.19772	0.797
8.23086	0.76
8.26401	0.676
8.29715	0.544
8.3303	0.576
8.36344	0.736
8.39658	0.808
8.42973	0.838
8.46287	0.844
8.49601	0.854
8.52916	0.861
8.5623	0.86
8.59544	0.886
8.62859	0.888
8.66173	0.833
8.69488	0.845
8.72802	0.89
8.76116	0.905
8.79431	0.91
8.82745	0.909
8.86059	0.914
8.89374	0.918
8.92688	0.917
8.96003	0.908
8.99317	0.88
9.02631	0.845
9.05946	0.833
9.0926	0.868
9.12574	0.858
9.15889	0.849
9.19203	0.852
9.22517	0.873
9.25832	0.885
9.29146	0.858
9.32461	0.833
9.35775	0.773
9.39089	0.792
9.42404	0.789
9.45718	0.798
9.49032	0.782
9.52347	0.796
9.55661	0.801
9.58975	0.801
9.6229	0.814
9.65604	0.845
9.68919	0.874
9.72233	0.913
9.75547	0.916
9.78862	0.921
9.82176	0.924
9.8549	0.933
9.88805	0.932
9.92119	0.941
9.95433	0.937
9.98748	0.932
10.0206	0.94
10.0538	0.938
10.0869	0.933
10.1201	0.936
10.1532	0.93
10.1863	0.934
10.2195	0.933
10.2526	0.933
10.2858	0.924
10.3189	0.921
10.3521	0.92
10.3852	0.922
10.4183	0.934
10.4515	0.929
10.4846	0.938
10.5178	0.938
10.5509	0.946
10.5841	0.941
10.6172	0.942
10.6504	0.944
10.6835	0.953
10.7166	0.944
10.7498	0.953
10.7829	0.944
10.8161	0.953
10.8492	0.945
10.8824	0.95
10.9155	0.952
10.9486	0.946
10.9818	0.949
11.0149	0.948
11.0481	0.948
11.0812	0.952
11.1144	0.945
11.1475	0.952
11.1807	0.948
11.2138	0.942
11.2469	0.94
11.2801	0.948
11.3132	0.948
11.3464	0.942
11.3795	0.942
11.4127	0.933
11.4458	0.918
11.4789	0.862
11.5121	0.769
11.5452	0.82
11.5784	0.901
11.6115	0.918
11.6447	0.921
11.6778	0.921
11.7109	0.921
11.7441	0.921
11.7772	0.925
11.8104	0.921
11.8435	0.91
11.8767	0.904
11.9098	0.908
11.943	0.922
11.9761	0.93
12.0092	0.937
12.0424	0.941
12.0755	0.937
12.1087	0.942
12.1418	0.944
12.175	0.942
12.2081	0.933
12.2412	0.942
12.2744	0.93
12.3075	0.944
12.3407	0.945
12.3738	0.946
12.407	0.946
12.4401	0.942
12.4733	0.937
12.5064	0.933
12.5395	0.929
12.5727	0.925
12.6058	0.888
12.639	0.808
12.6721	0.704
12.7053	0.782
12.7384	0.858
12.7715	0.886
12.8047	0.901
12.8378	0.908
12.871	0.908
12.9041	0.898
12.9373	0.873
12.9704	0.84
13.0036	0.844
13.0367	0.854
13.0698	0.84
13.103	0.81
13.1361	0.832
13.1693	0.893
13.2024	0.908
13.2356	0.896
13.2687	0.885
13.3018	0.878
13.335	0.844
13.3681	0.777
13.4013	0.652
13.4344	0.512
13.4676	0.569
13.5007	0.728
13.5339	0.802
13.567	0.837
13.6001	0.866
13.6333	0.873
13.6664	0.88
13.6996	0.882
13.7327	0.886
13.7659	0.884
13.799	0.881
13.8321	0.87
13.8653	0.833
13.8984	0.808
13.9316	0.817
13.9647	0.852
13.9979	0.88
14.031	0.886
14.0641	0.882
14.0973	0.881
14.1304	0.881
14.1636	0.873
14.1967	0.881
14.2299	0.881
14.263	0.861
14.2962	0.858
14.3293	0.846
14.3624	0.842
14.3956	0.832
14.4287	0.824
14.4619	0.814
14.495	0.8
14.5282	0.802
14.5613	0.801
14.5944	0.805
14.6276	0.802
14.6607	0.78
14.6939	0.773
14.727	0.774
14.7602	0.77
14.7933	0.777
14.8265	0.773
14.8596	0.753
14.8927	0.739
14.9259	0.723
14.959	0.736
14.9922	0.747
