Infrared Spectrum: MENTHOL, METHANESULFINATE
Formula: C11 H22 O2 S
CAS: 94487-99-7
State: SOLUTION (7% CCl4 FOR 3800-650, AND 11% CCl4 FOR 650-250)
Class: COBLENTZ
Instrument: PERKIN-ELMER 521 (GRATING)
Instrument parameters: FILTERS AT 3150, 2500, 2000, 1150, 700, 410. GRATING CHANGES: 2000, 630
Path length: 0.011 CM, AND 0.012 CM
Resolution: 2
Origin: DOW CORNING CORP.
1/CM	TRANSMITTANCE
250	0.5556
259	0.5548
268	0.5568
277	0.5544
286	0.5682
295	0.569
304	0.5891
313	0.5875
322	0.5938
331	0.6126
340	0.6162
349	0.5999
358	0.5568
367	0.5076
376	0.4764
385	0.565
394	0.6343
403	0.632
412	0.6291
421	0.6493
430	0.6805
439	0.6747
448	0.6637
457	0.6717
466	0.643
475	0.6084
484	0.6409
493	0.6681
502	0.7076
511	0.688
520	0.7004
529	0.705
538	0.581
547	0.5817
556	0.7085
565	0.7879
574	0.7957
583	0.7943
592	0.7372
601	0.7709
610	0.8139
619	0.9523
628	0.9979
637	0.9668
646	0.9534
655	0.9403
664	0.9196
673	0.8826
682	0.8359
691	0.5913
700	0.3361
709	0.6817
718	0.795
727	0.7497
736	0.6418
745	0.638
754	0.6378
763	0.6387
772	0.6395
781	0.6392
790	0.6341
799	0.6294
808	0.6314
817	0.7002
826	0.7799
835	0.7616
844	0.6213
853	0.1588
862	0.4053
871	0.7597
880	0.6783
889	0.7412
898	0.6606
907	0.2821
916	0.0664
925	0.4766
934	0.2928
943	0.2187
952	0.6464
961	0.6644
970	0.5789
979	0.1817
988	0.1
997	0.4864
1006	0.4376
1015	0.4853
1024	0.7048
1033	0.7053
1042	0.6006
1051	0.7414
1060	0.7087
1069	0.7265
1078	0.6252
1087	0.68
1096	0.5432
1105	0.5888
1114	0.5587
1123	0.3521
1132	0.0977
1141	0.0217
1150	0.0676
1159	0.4324
1168	0.6806
1177	0.6149
1186	0.6592
1195	0.8136
1204	0.8348
1213	0.8432
1222	0.8406
1231	0.803
1240	0.7639
1249	0.8401
1258	0.8369
1267	0.8185
1276	0.8049
1285	0.7587
1294	0.4826
1303	0.7937
1312	0.8082
1321	0.7839
1330	0.7715
1339	0.7046
1348	0.5399
1357	0.7067
1366	0.5883
1375	0.4837
1384	0.5985
1393	0.5866
1402	0.6417
1411	0.539
1420	0.7083
1429	0.7863
1438	0.7529
1447	0.4935
1456	0.2801
1465	0.4318
1474	0.6494
1483	0.8187
1492	0.8384
1501	0.8413
1510	0.8478
1519	0.8668
1528	0.8833
1537	0.8981
1546	0.9004
1555	0.9024
1564	0.8973
1573	0.8941
1582	0.8927
1591	0.8904
1600	0.8836
1609	0.8772
1618	0.8786
1627	0.8848
1636	0.8868
1645	0.8866
1654	0.8866
1663	0.8861
1672	0.8839
1681	0.882
1690	0.8985
1699	0.9014
1708	0.902
1717	0.9025
1726	0.9033
1735	0.9039
1744	0.904
1753	0.9049
1762	0.9064
1771	0.9084
1780	0.9105
1789	0.9122
1798	0.9127
1807	0.9131
1816	0.913
1825	0.9127
1834	0.912
1843	0.9108
1852	0.9094
1861	0.908
1870	0.9065
1879	0.9052
1888	0.9039
1897	0.9041
1906	0.9071
1915	0.9114
1924	0.9116
1933	0.9114
1942	0.9097
1951	0.9071
1960	0.9054
1969	0.9043
1978	0.902
1987	0.9032
1996	0.9104
2005	0.9096
2014	0.9083
2023	0.9072
2032	0.9064
2041	0.9056
2050	0.9058
2059	0.9061
2068	0.9061
2077	0.906
2086	0.9059
2095	0.9058
2104	0.9058
2113	0.9059
2122	0.9059
2131	0.9059
2140	0.9057
2149	0.9054
2158	0.9051
2167	0.9048
2176	0.9041
2185	0.9023
2194	0.9005
2203	0.8982
2212	0.8943
2221	0.8909
2230	0.8892
2239	0.8895
2248	0.8898
2257	0.8885
2266	0.8854
2275	0.8915
2284	0.8965
2293	0.9012
2302	0.9047
2311	0.9049
2320	0.9043
2329	0.9037
2338	0.9033
2347	0.9028
2356	0.9024
2365	0.9019
2374	0.9016
2383	0.9015
2392	0.9019
2401	0.9022
2410	0.9028
2419	0.9037
2428	0.9047
2437	0.9058
2446	0.9088
2455	0.9076
2464	0.9024
2473	0.9053
2482	0.9061
2491	0.906
2500	0.906
2509	0.9055
2518	0.9049
2527	0.9047
2536	0.9045
2545	0.9039
2554	0.9034
2563	0.9018
2572	0.9
2581	0.8972
2590	0.8924
2599	0.8824
2608	0.8748
2617	0.8749
2626	0.8743
2635	0.874
2644	0.8735
2653	0.8735
2662	0.8738
2671	0.874
2680	0.8742
2689	0.8742
2698	0.8741
2707	0.872
2716	0.8641
2725	0.8501
2734	0.8507
2743	0.865
2752	0.8731
2761	0.8722
2770	0.8684
2779	0.8678
2788	0.855
2797	0.8388
2806	0.8257
2815	0.8122
2824	0.7943
2833	0.7724
2842	0.7318
2851	0.6254
2860	0.4077
2869	0.2939
2878	0.1944
2887	0.1517
2896	0.2937
2905	0.2692
2914	0.2335
2923	0.1884
2932	0.0591
2941	0.0333
2950	0.0599
2959	0.0728
2968	0.0217
2977	0.0276
2986	0.2601
2995	0.5315
3004	0.7342
3013	0.7801
3022	0.81
3031	0.8427
3040	0.8693
3049	0.873
3058	0.8843
3067	0.8923
3076	0.8925
3085	0.8935
3094	0.8947
3103	0.8959
3112	0.8969
3121	0.8979
3130	0.8986
3139	0.8987
3148	0.8987
3157	0.8977
3166	0.8967
3175	0.8952
3184	0.8939
3193	0.8937
3202	0.8952
3211	0.8969
3220	0.9006
3229	0.9055
3238	0.9103
3247	0.9134
3256	0.9152
3265	0.916
3274	0.9161
3283	0.9146
3292	0.9132
3301	0.9121
3310	0.9111
3319	0.9101
3328	0.9092
3337	0.909
3346	0.9088
3355	0.9086
3364	0.9083
3373	0.9076
3382	0.907
3391	0.9065
3400	0.9062
3409	0.9058
3418	0.9055
3427	0.9052
3436	0.9049
3445	0.9046
3454	0.9027
3463	0.9003
3472	0.897
3481	0.894
3490	0.8919
3499	0.8911
3508	0.8909
3517	0.8921
3526	0.8943
3535	0.8967
3544	0.8994
3553	0.902
3562	0.9042
3571	0.9061
3580	0.9078
3589	0.9092
3598	0.9098
3607	0.9097
3616	0.9102
3625	0.9108
3634	0.9116
3643	0.9128
3652	0.9155
3661	0.9196
3670	0.9182
3679	0.9146
3688	0.9096
3697	0.8998
3706	0.906
3715	0.9142
3724	0.9166
3733	0.9184
3742	0.9202
3751	0.9224
3760	0.9221
3769	0.9205
3778	0.9187
3787	0.9169
3796	0.9161
3805	0.9173
3814	0.9196
