Infrared Spectrum: DIPHENYL SULFOXIDE
Formula: C12 H10 O S
CAS: 945-51-7
State: SOLUTION (10% IN CCl4 FOR 3800-1330, 10% IN CS2 FOR 1330-400 CM^-^1)
Class: COBLENTZ III
Instrument: BECKMAN IR-9 (GRATING)
Instrument parameters: ORDER CHANGES AT 670, 1200, 2000 CM^-^1
Sampling: TRANSMISSION
Resolution: 4
Origin: DOW CHEMICAL COMPANY
1/CM	TRANSMITTANCE
400.35	0.276
409.091	0.267
417.832	0.326
426.574	0.438
435.315	0.573
444.056	0.666
452.797	0.709
461.539	0.653
470.28	0.534
479.021	0.448
487.762	0.452
496.504	0.547
505.245	0.667
513.986	0.825
522.727	0.809
531.469	0.223
540.21	0.316
548.951	0.806
557.692	0.912
566.434	0.944
575.175	0.978
583.916	0.982
592.657	0.956
601.399	0.991
610.14	0.983
618.881	0.96
627.622	0.979
636.364	0.965
645.105	0.916
653.846	0.84
662.587	0.87
671.329	0.792
680.07	0.573
688.811	0.096
697.552	0.1031
706.294	0.707
715.035	0.855
723.776	0.856
732.517	0.569
741.259	0.035
750	0.215
758.741	0.562
767.482	0.867
776.224	0.93
784.965	0.95
793.706	0.956
802.447	0.961
811.188	0.964
819.93	0.967
828.671	0.956
837.412	0.895
846.153	0.841
854.895	0.797
863.636	0.814
872.377	0.854
881.118	0.895
889.86	0.931
898.601	0.944
907.342	0.899
916.083	0.831
924.825	0.931
933.566	0.956
942.307	0.964
951.048	0.964
959.79	0.952
968.531	0.918
977.272	0.931
986.013	0.881
994.755	0.652
1003.5	0.818
1012.24	0.836
1020.98	0.224
1029.72	0.794
1038.46	0.615
1047.2	0.061
1055.94	0.234
1064.68	0.51
1073.43	0.378
1082.17	0.472
1090.91	0.051
1099.65	0.43
1108.39	0.758
1117.13	0.862
1125.87	0.886
1134.61	0.905
1143.36	0.914
1152.1	0.873
1160.84	0.784
1169.58	0.799
1178.32	0.844
1187.06	0.911
1195.8	0.945
1204.54	0.963
1213.29	0.975
1222.03	0.979
1230.77	0.976
1239.51	0.967
1248.25	0.974
1256.99	0.976
1265.73	0.965
1274.47	0.959
1283.22	0.945
1291.96	0.908
1300.7	0.776
1309.44	0.843
1318.18	0.863
1326.92	0.803
1335.66	0.93
1344.4	0.97
1353.15	0.985
1361.89	0.989
1370.63	0.983
1379.37	0.95
1388.11	0.931
1396.85	0.961
1405.59	0.976
1414.33	0.971
1423.08	0.955
1431.82	0.923
1440.56	0.6219
1449.3	0.483
1458.04	0.873
1466.78	0.891
1475.52	0.4311
1484.26	0.764
1493.01	0.855
1501.75	0.847
1510.49	0.802
1519.23	0.76
1527.97	0.705
1536.71	0.622
1545.45	0.549
1554.19	0.52
1562.94	0.572
1571.68	0.63
1580.42	0.553
1589.16	0.645
1597.9	0.762
1606.64	0.859
1615.38	0.905
1624.12	0.941
1632.87	0.956
1641.61	0.957
1650.35	0.953
1659.09	0.941
1667.83	0.94
1676.57	0.955
1685.31	0.972
1694.05	0.987
1702.8	0.989
1711.54	0.994
1720.28	0.993
1729.02	0.995
1737.76	0.985
1746.5	0.965
1755.24	0.944
1763.98	0.952
1772.73	0.959
1781.47	0.978
1790.21	0.98
1798.95	0.946
1807.69	0.888
1816.43	0.944
1825.17	0.952
1833.91	0.957
1842.66	0.975
1851.4	0.976
1860.14	0.976
1868.88	0.97
1877.62	0.92
1886.36	0.899
1895.1	0.931
1903.84	0.922
1912.59	0.956
1921.33	0.976
1930.07	0.983
1938.81	0.978
1947.55	0.949
1956.29	0.878
1965.03	0.94
1973.77	0.918
1982.52	0.95
1991.26	0.968
2000	0.971
2008.74	0.975
2017.48	0.979
2026.22	0.982
2034.96	0.983
2043.7	0.987
2052.45	0.987
2061.19	0.986
2069.93	0.986
2078.67	0.982
2087.41	0.9761
2096.15	0.9641
2104.89	0.96
2113.63	0.9719
2122.38	0.976
2131.12	0.975
2139.86	0.971
2148.6	0.96
2157.34	0.9749
2166.08	0.9789
2174.82	0.982
2183.56	0.985
2192.31	0.986
2201.05	0.987
2209.79	0.989
2218.53	0.989
2227.27	0.9872
2236.01	0.986
2244.75	0.982
2253.49	0.9781
2262.24	0.976
2270.98	0.9711
2279.72	0.9603
2288.46	0.957
2297.2	0.9588
2305.94	0.96
2314.68	0.9591
2323.42	0.9442
2332.17	0.942
2340.91	0.945
2349.65	0.953
2358.39	0.9609
2367.13	0.9649
2375.87	0.9667
2384.61	0.971
2393.35	0.9749
2402.09	0.976
2410.84	0.978
2419.58	0.979
2428.32	0.9781
2437.06	0.98
2445.8	0.9815
2454.54	0.986
2463.28	0.987
2472.02	0.987
2480.77	0.985
2489.51	0.9822
2498.25	0.9803
2506.99	0.98
2515.73	0.979
2524.47	0.979
2533.21	0.9798
2541.95	0.982
2550.7	0.983
2559.44	0.9822
2568.18	0.9804
2576.92	0.9764
2585.66	0.9672
2594.4	0.9744
2603.14	0.9724
2611.88	0.965
2620.63	0.968
2629.37	0.9708
2638.11	0.972
2646.85	0.972
2655.59	0.9657
2664.33	0.9592
2673.07	0.9608
2681.81	0.9638
2690.56	0.9695
2699.3	0.9735
2708.04	0.974
2716.78	0.975
2725.52	0.975
2734.26	0.9725
2743	0.9747
2751.74	0.9765
2760.49	0.975
2769.23	0.974
2777.97	0.975
2786.71	0.975
2795.45	0.975
2804.19	0.975
2812.93	0.976
2821.67	0.9797
2830.42	0.979
2839.16	0.982
2847.9	0.9793
2856.64	0.9766
2865.38	0.974
2874.12	0.978
2882.86	0.976
2891.6	0.97
2900.35	0.972
2909.09	0.971
2917.83	0.9673
2926.57	0.959
2935.31	0.96
2944.05	0.963
2952.79	0.9563
2961.53	0.9624
2970.28	0.9677
2979.02	0.97
2987.76	0.9657
2996.5	0.9533
3005.24	0.9064
3013.98	0.8491
3022.72	0.8653
3031.46	0.86
3040.21	0.8774
3048.95	0.8189
3057.69	0.6158
3066.43	0.5134
3075.17	0.6116
3083.91	0.6455
3092.65	0.7967
3101.39	0.886
3110.14	0.9378
3118.88	0.9472
3127.62	0.955
3136.36	0.96
3145.1	0.961
3153.84	0.961
3162.58	0.9558
3171.32	0.9478
3180.07	0.9636
3188.81	0.9716
3197.55	0.9756
3206.29	0.9756
3215.03	0.979
3223.77	0.979
3232.51	0.979
3241.25	0.979
3250	0.979
3258.74	0.979
3267.48	0.979
3276.22	0.979
3284.96	0.98
3293.7	0.98
3302.44	0.98
3311.18	0.98
3319.93	0.98
3328.67	0.98
3337.41	0.978
3346.15	0.979
3354.89	0.979
3363.63	0.9785
3372.37	0.978
3381.11	0.978
3389.86	0.976
3398.6	0.975
3407.34	0.976
3416.08	0.9755
3424.82	0.974
3433.56	0.975
3442.3	0.972
3451.04	0.971
3459.79	0.97
3468.53	0.97
3477.27	0.969
3486.01	0.967
3494.75	0.968
3503.49	0.968
3512.23	0.97
3520.97	0.97
3529.72	0.97
3538.46	0.971
3547.2	0.974
3555.94	0.975
3564.68	0.975
3573.42	0.9745
3582.16	0.9731
3590.9	0.9635
3599.65	0.9694
3608.39	0.9731
3617.13	0.963
3625.87	0.967
3634.61	0.968
3643.35	0.97
3652.09	0.971
3660.83	0.9714
3669.58	0.974
3678.32	0.9706
3687.06	0.9636
3695.8	0.9556
3704.54	0.9573
3713.28	0.9638
3722.02	0.9714
3730.76	0.9746
3739.51	0.9732
3748.25	0.97
3756.99	0.965
3765.73	0.964
3774.47	0.965
3783.21	0.968
3791.95	0.9704
