Infrared Spectrum: N-(2-Phenylethyl)aminoacetaldehyde diethyl acetal
Formula: C 14 H 23 N O 2
CAS: 94508-09-5
State: gas
Origin: EPA-IR VAPOR PHASE LIBRARY
1/CM	ABSORBANCE
549.8	0.00821
559.445	0.01012
569.09	0.01161
578.734	0.01257
588.379	0.01091
598.024	0.00996
607.669	0.00927
617.313	0.00835
626.958	0.00854
636.603	0.00994
646.248	0.01154
655.893	0.01429
665.537	0.0173
675.182	0.02426
684.827	0.03595
694.472	0.06633
704.116	0.05528
713.761	0.039
723.406	0.03588
733.051	0.04057
742.695	0.04943
752.34	0.03427
761.985	0.02356
771.63	0.01856
781.275	0.01457
790.919	0.01248
800.564	0.01179
810.209	0.01104
819.854	0.01151
829.498	0.01173
839.143	0.01409
848.788	0.0159
858.433	0.01426
868.078	0.01157
877.722	0.01087
887.367	0.01245
897.012	0.01436
906.657	0.01713
916.301	0.01823
925.946	0.01864
935.591	0.01746
945.236	0.01719
954.88	0.01815
964.525	0.0199
974.17	0.02453
983.815	0.03293
993.46	0.04665
1003.1	0.06045
1012.75	0.06809
1022.39	0.07389
1032.04	0.08679
1041.68	0.10762
1051.33	0.16509
1060.97	0.21999
1070.62	0.22066
1080.26	0.18397
1089.91	0.16023
1099.55	0.15176
1109.2	0.16024
1118.84	0.20326
1128.49	0.2373
1138.13	0.20497
1147.78	0.13915
1157.42	0.09501
1167.07	0.0721
1176.71	0.05693
1186.36	0.04344
1196	0.03681
1205.64	0.03013
1215.29	0.02645
1224.93	0.02449
1234.58	0.02387
1244.22	0.02168
1253.87	0.02091
1263.51	0.02025
1273.16	0.0217
1282.8	0.02367
1292.45	0.02629
1302.09	0.02904
1311.74	0.0278
1321.38	0.02601
1331.03	0.02878
1340.67	0.03914
1350.32	0.04358
1359.96	0.03935
1369.61	0.04806
1379.25	0.05687
1388.9	0.0418
1398.54	0.02917
1408.18	0.02261
1417.83	0.01962
1427.47	0.02128
1437.12	0.03036
1446.76	0.04184
1456.41	0.05427
1466.05	0.05818
1475.7	0.04227
1485.34	0.03112
1494.99	0.03609
1504.63	0.01898
1514.28	0.00907
1523.92	0.00676
1533.57	0.00614
1543.21	0.00523
1552.86	0.00441
1562.5	0.00456
1572.15	0.00514
1581.79	0.00707
1591.44	0.0102
1601.08	0.0143
1610.73	0.01005
1620.37	0.00463
1630.01	0.0037
1639.66	0.00346
1649.3	0.00343
1658.95	0.00344
1668.59	0.00339
1678.24	0.00336
1687.88	0.00279
1697.53	0.00263
1707.17	0.00274
1716.82	0.00293
1726.46	0.00307
1736.11	0.00319
1745.75	0.0031
1755.4	0.0027
1765.04	0.00272
1774.69	0.0032
1784.33	0.00405
1793.98	0.00536
1803.62	0.00418
1813.27	0.00328
1822.91	0.00289
1832.55	0.00301
1842.2	0.00323
1851.84	0.00376
1861.49	0.00437
1871.13	0.00478
1880.78	0.00457
1890.42	0.00381
1900.07	0.00366
1909.71	0.00399
1919.36	0.00451
1929	0.00571
1938.65	0.00633
1948.29	0.00642
1957.94	0.00508
1967.58	0.00401
1977.23	0.00365
1986.87	0.00346
1996.52	0.00305
2006.16	0.0026
2015.81	0.00245
2025.45	0.00233
2035.1	0.00202
2044.74	0.00189
2054.38	0.00207
2064.03	0.002
2073.67	0.00188
2083.32	0.00222
2092.96	0.00219
2102.61	0.00218
2112.25	0.00205
2121.9	0.0021
2131.54	0.00212
2141.19	0.00228
2150.83	0.00243
2160.48	0.00226
2170.12	0.00242
2179.77	0.00224
2189.41	0.00234
2199.06	0.00218
2208.7	0.00223
2218.35	0.00213
2227.99	0.00173
2237.64	0.0019
2247.28	0.00193
2256.92	0.00206
2266.57	0.00217
2276.21	0.00205
2285.86	0.00187
2295.5	0.00176
2305.15	0.0019
2314.79	0.00198
2324.44	0.00176
2334.08	0.00167
2343.73	0.0015
2353.37	0.00193
2363.02	0.00158
2372.66	0.00162
2382.31	0.00169
2391.95	0.0017
2401.6	0.00176
2411.24	0.00179
2420.89	0.00182
2430.53	0.00175
2440.18	0.00172
2449.82	0.00171
2459.47	0.00155
2469.11	0.00169
2478.75	0.00142
2488.4	0.00149
2498.04	0.00179
2507.69	0.00167
2517.33	0.00167
2526.98	0.00162
2536.62	0.00157
2546.27	0.00177
2555.91	0.00208
2565.56	0.00245
2575.2	0.00254
2584.85	0.00293
2594.49	0.00332
2604.14	0.00391
2613.78	0.00431
2623.43	0.00494
2633.07	0.00534
2642.72	0.0059
2652.36	0.00602
2662.01	0.00624
2671.65	0.00651
2681.29	0.00692
2690.94	0.00771
2700.58	0.00813
2710.23	0.00894
2719.87	0.00948
2729.52	0.01018
2739.16	0.01124
2748.81	0.01234
2758.45	0.0138
2768.1	0.01544
2777.74	0.0179
2787.39	0.02161
2797.03	0.02677
2806.68	0.03589
2816.32	0.04707
2825.97	0.05717
2835.61	0.06406
2845.26	0.07049
2854.9	0.07672
2864.55	0.08517
2874.19	0.09645
2883.84	0.10534
2893.48	0.10857
2903.12	0.1139
2912.77	0.12466
2922.41	0.13384
2932.06	0.14259
2941.7	0.14591
2951.35	0.11518
2960.99	0.08878
2970.64	0.09387
2980.28	0.12628
2989.93	0.09187
2999.57	0.04854
3009.22	0.03728
3018.86	0.03885
3028.51	0.05245
3038.15	0.04623
3047.8	0.02853
3057.44	0.02954
3067.09	0.04512
3076.73	0.03627
3086.38	0.0256
3096.02	0.01799
3105.67	0.01282
3115.31	0.00831
3124.95	0.00535
3134.6	0.00394
3144.24	0.00309
3153.89	0.00338
3163.53	0.00304
3173.18	0.00242
3182.82	0.00227
3192.47	0.00218
3202.11	0.002
3211.76	0.00217
3221.4	0.00176
3231.05	0.00137
3240.69	0.00162
3250.34	0.00149
3259.98	0.00126
3269.63	0.00121
3279.27	0.00122
3288.92	0.00118
3298.56	0.0008561
3308.21	0.00109
3317.85	0.00118
3327.49	0.0012
3337.14	0.00209
3346.78	0.00313
3356.43	0.00336
3366.07	0.00296
3375.72	0.0026
3385.36	0.00219
3395.01	0.00234
3404.65	0.00177
3414.3	0.0013
3423.94	0.0014
3433.59	0.00126
3443.23	0.00138
3452.88	0.00102
3462.52	0.0008684
3472.17	0.0007486
3481.81	0.00105
3491.46	0.0007169
3501.1	0.0008473
3510.75	0.000802
3520.39	0.0007468
3530.04	0.0008163
3539.68	0.0008362
3549.32	0.0007103
3558.97	0.0008459
3568.61	0.0007045
3578.26	0.0007527
3587.9	0.0008311
3597.55	0.0005823
3607.19	0.0006863
3616.84	0.0009529
3626.48	0.00126
3636.13	0.0008743
3645.77	0.00104
3655.42	0.00105
3665.06	0.00103
3674.71	0.00119
3684.35	0.00118
3694	0.00131
3703.64	0.0009105
3713.29	0.00118
3722.93	0.0009423
3732.58	0.0012
3742.22	0.00119
3751.86	0.0007796
3761.51	0.0008909
3771.15	0.00101
3780.8	0.0009927
3790.44	0.00104
3800.09	0.00105
3809.73	0.0009371
3819.38	0.001
3829.02	0.00111
3838.67	0.00113
3848.31	0.0013
3857.96	0.00126
3867.6	0.00114
3877.25	0.0009875
3886.89	0.00108
3896.54	0.0008899
3906.18	0.00116
3915.83	0.00145
3925.47	0.00154
3935.12	0.00135
3944.76	0.00175
3954.41	0.00153
3964.05	0.00207
3973.69	0.00143
3983.34	0.0021
3992.98	0.00218
