Infrared Spectrum: Triazolo [4,5-d] pyrimidine, 3H-v-, 7-(octyloxy)-
Formula: C12 H19 N5 O
CAS: 94523-45-2
State: SOLID (0.8 mg / 650 mg KBr DISC)
Class: COBLENTZ III
Instrument: PERKIN-ELMER 21 (GRATING)
Instrument parameters: FILTER CHANGE ABOUT 1020 CM^-^1
Sampling: TRANSMISSION
Resolution: 2
Origin: SOUTHERN RESEARCH INSTITUTE
1/CM	TRANSMITTANCE
602.03	0.7558
611.083	0.754
620.136	0.7491
629.189	0.7419
638.241	0.7287
647.294	0.7096
656.347	0.6639
665.4	0.5686
674.453	0.615
683.506	0.7011
692.559	0.7922
701.612	0.7884
710.664	0.7677
719.717	0.742
728.77	0.7569
737.823	0.7804
746.876	0.7804
755.929	0.7774
764.982	0.7718
774.034	0.7634
783.087	0.742
792.14	0.6761
801.193	0.4979
810.246	0.7934
819.299	0.7853
828.352	0.7605
837.405	0.7357
846.457	0.7105
855.51	0.6861
864.563	0.6615
873.616	0.6427
882.669	0.6409
891.722	0.6194
900.775	0.5596
909.827	0.453
918.88	0.5559
927.933	0.6434
936.986	0.5807
946.039	0.5507
955.092	0.6181
964.145	0.6234
973.198	0.3988
982.25	0.6201
991.303	0.6283
1000.36	0.5426
1009.41	0.4802
1018.46	0.5556
1027.51	0.4971
1036.57	0.7001
1045.62	0.7403
1054.67	0.76
1063.73	0.7581
1072.78	0.7553
1081.83	0.8017
1090.88	0.8422
1099.94	0.8424
1108.99	0.8344
1118.04	0.8053
1127.1	0.763
1136.15	0.7298
1145.2	0.4756
1154.25	0.2521
1163.31	0.7024
1172.36	0.7407
1181.41	0.68
1190.47	0.7186
1199.52	0.7895
1208.57	0.7659
1217.62	0.6546
1226.68	0.4765
1235.73	0.2879
1244.78	0.5762
1253.84	0.7326
1262.89	0.8224
1271.94	0.8252
1280.99	0.8043
1290.05	0.7736
1299.1	0.69
1308.15	0.4781
1317.21	0.4603
1326.26	0.3415
1335.31	0.2509
1344.37	0.1604
1353.42	0.2479
1362.47	0.3856
1371.52	0.5114
1380.58	0.4932
1389.63	0.6358
1398.68	0.7362
1407.74	0.7066
1416.79	0.6013
1425.84	0.3263
1434.89	0.383
1443.95	0.5134
1453	0.4597
1462.05	0.3761
1471.11	0.3784
1480.16	0.6045
1489.21	0.4367
1498.26	0.3335
1507.32	0.5986
1516.37	0.7422
1525.42	0.7724
1534.48	0.7533
1543.53	0.7277
1552.58	0.6903
1561.63	0.6278
1570.69	0.5721
1579.74	0.4776
1588.79	0.2997
1597.85	0.0531
1606.9	0.0335
1615.95	0.1141
1625	0.2814
1634.06	0.5561
1643.11	0.6034
1652.16	0.6872
1661.22	0.7131
1670.27	0.7461
1679.32	0.7727
1688.37	0.791
1697.43	0.804
1706.48	0.8112
1715.53	0.8203
1724.59	0.8207
1733.64	0.8296
1742.69	0.8335
1751.74	0.8349
1760.8	0.8364
1769.85	0.838
1778.9	0.8388
1787.96	0.8397
1797.01	0.8411
1806.06	0.8422
1815.11	0.8423
1824.17	0.841
1833.22	0.8407
1842.27	0.8452
1851.33	0.8463
1860.38	0.8465
1869.43	0.8483
1878.48	0.8502
1887.54	0.8515
1896.59	0.8527
1905.64	0.8549
1914.7	0.8566
1923.75	0.8577
1932.8	0.8569
1941.85	0.8558
1950.91	0.8521
1959.96	0.8434
1969.01	0.8384
1978.07	0.8487
1987.12	0.8606
1996.17	0.8688
2005.22	0.8717
2014.28	0.8734
2023.33	0.8749
2032.38	0.8759
2041.44	0.8767
2050.49	0.8779
2059.54	0.8787
2068.59	0.8793
2077.65	0.8798
2086.7	0.8802
2095.75	0.8806
2104.81	0.8814
2113.86	0.8823
2122.91	0.8829
2131.96	0.8835
2141.02	0.8834
2150.07	0.8831
2159.12	0.8831
2168.18	0.8832
2177.23	0.8818
2186.28	0.8808
2195.33	0.8785
2204.39	0.8742
2213.44	0.8717
2222.49	0.8707
2231.55	0.8706
2240.6	0.8687
2249.65	0.8669
2258.7	0.8654
2267.76	0.8633
2276.81	0.861
2285.86	0.8573
2294.92	0.8498
2303.97	0.8436
2313.02	0.8412
2322.07	0.8394
2331.13	0.8393
2340.18	0.8355
2349.23	0.8344
2358.29	0.8333
2367.34	0.8334
2376.39	0.8235
2385.44	0.8101
2394.5	0.8016
2403.55	0.7974
2412.6	0.7949
2421.66	0.7899
2430.71	0.7689
2439.76	0.7564
2448.81	0.7462
2457.87	0.7386
2466.92	0.7338
2475.97	0.7306
2485.03	0.7275
2494.08	0.7242
2503.13	0.7194
2512.18	0.7103
2521.24	0.7005
2530.29	0.6881
2539.34	0.6739
2548.4	0.6594
2557.45	0.6459
2566.5	0.6334
2575.55	0.6192
2584.61	0.6001
2593.66	0.5822
2602.71	0.566
2611.77	0.5533
2620.82	0.5437
2629.87	0.5344
2638.92	0.525
2647.98	0.5153
2657.03	0.5072
2666.08	0.5008
2675.14	0.4962
2684.19	0.4856
2693.24	0.4676
2702.3	0.4474
2711.35	0.4296
2720.4	0.4124
2729.45	0.4082
2738.51	0.4074
2747.56	0.4064
2756.61	0.4016
2765.67	0.3903
2774.72	0.3795
2783.77	0.3676
2792.82	0.3528
2801.88	0.3326
2810.93	0.3129
2819.98	0.2909
2829.04	0.2628
2838.09	0.2401
2847.14	0.2401
2856.19	0.2493
2865.25	0.2584
2874.3	0.2605
2883.35	0.2505
2892.41	0.2064
2901.46	0.1604
2910.51	0.1434
2919.56	0.1462
2928.62	0.1659
2937.67	0.1911
2946.72	0.2167
2955.78	0.2438
2964.83	0.274
2973.88	0.3055
2982.93	0.348
2991.99	0.383
3001.04	0.4115
3010.09	0.4331
3019.15	0.4393
3028.2	0.4362
3037.25	0.4285
3046.3	0.4186
3055.36	0.408
3064.41	0.4059
3073.46	0.4104
3082.52	0.4196
3091.57	0.4399
3100.62	0.4589
3109.67	0.4763
3118.73	0.5008
3127.78	0.527
3136.83	0.5545
3145.89	0.5834
3154.94	0.603
3163.99	0.6121
3173.04	0.6278
3182.1	0.6446
3191.15	0.6494
3200.2	0.6544
3209.26	0.6688
3218.31	0.6905
3227.36	0.7107
3236.41	0.7218
3245.47	0.7281
3254.52	0.7325
3263.57	0.736
3272.63	0.741
3281.68	0.7445
3290.73	0.747
3299.78	0.7463
3308.84	0.7459
3317.89	0.7441
3326.94	0.7397
3336	0.7334
3345.05	0.7262
3354.1	0.7181
3363.15	0.7082
3372.21	0.6993
3381.26	0.691
3390.31	0.6834
3399.37	0.6768
3408.42	0.6729
3417.47	0.671
3426.52	0.6708
3435.58	0.6721
3444.63	0.6744
3453.68	0.6788
3462.74	0.6833
3471.79	0.6909
3480.84	0.7027
3489.89	0.7106
3498.95	0.7199
3508	0.7268
3517.05	0.7331
3526.11	0.7394
3535.16	0.7459
3544.21	0.753
3553.26	0.7595
3562.32	0.7655
3571.37	0.7739
3580.42	0.7907
3589.48	0.7998
3598.53	0.8018
3607.58	0.8076
3616.63	0.83
3625.69	0.8386
3634.74	0.843
3643.79	0.8447
3652.85	0.8465
3661.9	0.848
3670.95	0.8493
3680	0.8505
3689.06	0.8522
3698.11	0.8542
3707.16	0.8558
3716.22	0.8564
3725.27	0.8562
3734.32	0.8562
3743.37	0.8574
3752.43	0.8606
3761.48	0.8633
3770.53	0.8648
3779.59	0.8651
3788.64	0.8648
3797.69	0.8628
3806.74	0.8613
3815.8	0.8601
3824.85	0.86
3833.9	0.8618
3842.96	0.865
3852.01	0.868
3861.06	0.8701
3870.11	0.8716
3879.17	0.8724
3888.22	0.8728
3897.27	0.8733
3906.33	0.8741
3915.38	0.8745
3924.43	0.8746
3933.48	0.8743
3942.54	0.8738
3951.59	0.8731
3960.64	0.8724
3969.7	0.872
3978.75	0.8715
3987.8	0.8705
3996.85	0.8701
4005.91	0.8697
4014.96	0.8694
