Infrared Spectrum: 1-BENZOXEPIN-5-CARBOXYLIC ACID,2,3,4,5-TETRAHYDRO-3-HYDROXY-5-PHENYL-,Gamma-LACTONE
Formula: C17 H14 O3
CAS: 94540-95-1
State: SOLUTION 7% (CHCl3 FOR 2.5-12.5 microns)
Class: COBLENTZ
Instrument: PERKIN-ELMER 21 (GRATING)
Instrument parameters: FILTER AT ABOUT 10 MICRONS
Path length: 0.01 CM
Resolution: 2
Origin: ABBOTT LABORATORIES
1/CM	TRANSMITTANCE
800	0.8114
809	0.8488
818	0.8383
827	0.7478
836	0.7864
845	0.7726
854	0.7483
863	0.6035
872	0.8352
881	0.854
890	0.8688
899	0.8568
908	0.7987
917	0.7424
926	0.7692
935	0.5927
944	0.5406
953	0.6584
962	0.5974
971	0.763
980	0.7782
989	0.6787
998	0.3189
1007	0.3636
1016	0.7606
1025	0.7255
1034	0.6771
1043	0.7461
1052	0.6271
1061	0.5866
1070	0.6803
1079	0.5176
1088	0.4528
1097	0.593
1106	0.5464
1115	0.6799
1124	0.5254
1133	0.3363
1142	0.2729
1151	0.4557
1160	0.6615
1169	0.6918
1178	0.7387
1187	0.6839
1196	0.6332
1205	0.6185
1214	0.6041
1223	0.5898
1232	0.5758
1241	0.6257
1250	0.5266
1259	0.6021
1268	0.5993
1277	0.6724
1286	0.6797
1295	0.7182
1304	0.7791
1313	0.7794
1322	0.7173
1331	0.5827
1340	0.2945
1349	0.656
1358	0.7936
1367	0.7944
1376	0.8107
1385	0.8218
1394	0.8388
1403	0.8285
1412	0.8127
1421	0.7862
1430	0.5752
1439	0.3898
1448	0.6172
1457	0.6837
1466	0.5366
1475	0.2309
1484	0.5662
1493	0.6591
1502	0.8068
1511	0.8307
1520	0.8362
1529	0.8383
1538	0.8359
1547	0.8263
1556	0.8124
1565	0.741
1574	0.7516
1583	0.7706
1592	0.7138
1601	0.7378
1610	0.8221
1619	0.8292
1628	0.8435
1637	0.8448
1646	0.8421
1655	0.843
1664	0.8463
1673	0.8455
1682	0.8428
1691	0.8361
1700	0.8243
1709	0.791
1718	0.7575
1727	0.7138
1736	0.6487
1745	0.5158
1754	0.2581
1763	0.0806
1772	0.0625
1781	0.3175
1790	0.6585
1799	0.7436
1808	0.781
1817	0.8115
1826	0.832
1835	0.8477
1844	0.8579
1853	0.8582
1862	0.8541
1871	0.8462
1880	0.8475
1889	0.8496
1898	0.8539
1907	0.8638
1916	0.8633
1925	0.8589
1934	0.8478
1943	0.8557
1952	0.8643
1961	0.8722
1970	0.8772
1979	0.8786
1988	0.8787
1997	0.8794
2006	0.8799
2015	0.8805
2024	0.881
2033	0.8817
2042	0.8823
2051	0.8829
2060	0.883
2069	0.8839
2078	0.886
2087	0.8912
2096	0.8926
2105	0.8929
2114	0.8926
2123	0.891
2132	0.8874
2141	0.8851
2150	0.8858
2159	0.8867
2168	0.8876
2177	0.8872
2186	0.8867
2195	0.8864
2204	0.8873
2213	0.8894
2222	0.8909
2231	0.8904
2240	0.8862
2249	0.8841
2258	0.883
2267	0.8825
2276	0.883
2285	0.8828
2294	0.8816
2303	0.8799
2312	0.8779
2321	0.8757
2330	0.8736
2339	0.8716
2348	0.8695
2357	0.8667
2366	0.8637
2375	0.8624
2384	0.8639
2393	0.8673
2402	0.871
2411	0.8737
2420	0.8763
2429	0.8786
2438	0.8805
2447	0.8826
2456	0.8847
2465	0.8869
2474	0.8889
2483	0.8908
2492	0.8914
2501	0.8916
2510	0.8917
2519	0.8921
2528	0.8944
2537	0.8972
2546	0.899
2555	0.9
2564	0.9002
2573	0.9001
2582	0.8997
2591	0.8993
2600	0.8989
2609	0.8982
2618	0.8973
2627	0.8964
2636	0.8956
2645	0.8948
2654	0.894
2663	0.8933
2672	0.8925
2681	0.8918
2690	0.8914
2699	0.8913
2708	0.8912
2717	0.8933
2726	0.8959
2735	0.8961
2744	0.8938
2753	0.8906
2762	0.8864
2771	0.8799
2780	0.8721
2789	0.8624
2798	0.8525
2807	0.842
2816	0.8293
2825	0.8171
2834	0.8139
2843	0.8101
2852	0.8011
2861	0.7864
2870	0.7742
2879	0.7612
2888	0.7471
2897	0.7394
2906	0.7308
2915	0.7144
2924	0.7007
2933	0.6855
2942	0.6707
2951	0.6666
2960	0.6644
2969	0.6607
2978	0.6582
2987	0.66
2996	0.6657
3005	0.6755
3014	0.6918
3023	0.7236
3032	0.7799
3041	0.802
3050	0.8185
3059	0.8342
3068	0.8455
3077	0.856
3086	0.8653
3095	0.8724
3104	0.8782
3113	0.8825
3122	0.8855
3131	0.8869
3140	0.8875
3149	0.8879
3158	0.8883
3167	0.8887
3176	0.8887
3185	0.8882
3194	0.8879
3203	0.8876
3212	0.8872
3221	0.8868
3230	0.8864
3239	0.8861
3248	0.8857
3257	0.885
3266	0.8842
3275	0.8836
3284	0.8837
3293	0.8837
3302	0.8837
3311	0.8845
3320	0.8854
3329	0.885
3338	0.8845
3347	0.8841
3356	0.8831
3365	0.8821
3374	0.8808
3383	0.8777
3392	0.8749
3401	0.8723
3410	0.871
3419	0.8707
3428	0.8703
3437	0.8703
3446	0.8705
3455	0.8708
3464	0.871
3473	0.8713
3482	0.8721
3491	0.8728
3500	0.874
3509	0.8769
3518	0.8801
3527	0.8831
3536	0.886
3545	0.8874
3554	0.8886
3563	0.8899
3572	0.8911
3581	0.8919
3590	0.8927
3599	0.8935
3608	0.8942
3617	0.8947
3626	0.895
3635	0.8952
3644	0.8948
3653	0.894
3662	0.8933
3671	0.8928
3680	0.8925
3689	0.8923
3698	0.8921
3707	0.8918
3716	0.8918
3725	0.8917
3734	0.8917
3743	0.8916
3752	0.8916
3761	0.8915
3770	0.8916
3779	0.8916
3788	0.8916
3797	0.8916
3806	0.8916
3815	0.8916
3824	0.8916
3833	0.8916
3842	0.8915
3851	0.8914
3860	0.8913
3869	0.8912
3878	0.891
3887	0.8907
3896	0.8892
3905	0.8876
3914	0.8853
3923	0.883
3932	0.8809
3941	0.8797
3950	0.8799
3959	0.8802
3968	0.8805
3977	0.8809
3986	0.8813
3995	0.8816
