Infrared Spectrum: Furan-2(3H)-one, 5- (bromomethyl)-4,5-dihydro-3-(o-hydroxyphenyl)-3-phenyl-
Formula: C17 H15 Br O3
CAS: 94574-85-3
State: SOLID (NUJOL MULL)
Class: COBLENTZ III
Instrument: PERKIN-ELMER 21 (GRATING)
Instrument parameters: FILTER AT ABOUT 10 MICRONS
Resolution: 2
Origin: ABBOTT LABORATORIES
1/CM	TRANSMITTANCE
658	0.637
667	0.5653
676	0.7125
685	0.7104
694	0.6098
703	0.4988
712	0.7084
721	0.7213
730	0.7137
739	0.6847
748	0.696
757	0.3139
766	0.4375
775	0.7936
784	0.8216
793	0.8254
802	0.8122
811	0.7309
820	0.8138
829	0.8143
838	0.7453
847	0.6839
856	0.764
865	0.7141
874	0.8175
883	0.8096
892	0.7992
901	0.7346
910	0.7648
919	0.7682
928	0.7963
937	0.7767
946	0.7835
955	0.7593
964	0.6057
973	0.5471
982	0.7681
991	0.7512
1000	0.7093
1009	0.4631
1018	0.7078
1027	0.6946
1036	0.6772
1045	0.7272
1054	0.7529
1063	0.737
1072	0.6022
1081	0.6989
1090	0.6735
1099	0.5372
1108	0.6775
1117	0.7074
1126	0.6855
1135	0.6536
1144	0.6036
1153	0.5603
1162	0.4604
1171	0.2327
1180	0.3638
1189	0.3631
1198	0.5734
1207	0.4615
1216	0.5709
1225	0.345
1234	0.3767
1243	0.6292
1252	0.6457
1261	0.6723
1270	0.7115
1279	0.7079
1288	0.6423
1297	0.5484
1306	0.6755
1315	0.691
1324	0.6484
1333	0.4261
1342	0.3538
1351	0.4716
1360	0.5245
1369	0.4828
1378	0.6873
1387	0.7545
1396	0.7623
1405	0.7383
1414	0.5871
1423	0.6851
1432	0.4625
1441	0.2385
1450	0.2215
1459	0.3859
1468	0.6427
1477	0.6707
1486	0.6413
1495	0.5223
1504	0.7567
1513	0.7783
1522	0.8028
1531	0.8036
1540	0.8036
1549	0.7982
1558	0.7938
1567	0.7556
1576	0.6952
1585	0.6589
1594	0.6602
1603	0.7046
1612	0.7949
1621	0.7915
1630	0.7868
1639	0.7805
1648	0.7744
1657	0.767
1666	0.7601
1675	0.7512
1684	0.7305
1693	0.6991
1702	0.6804
1711	0.6142
1720	0.554
1729	0.2943
1738	0.1069
1747	0.2156
1756	0.4646
1765	0.7111
1774	0.7444
1783	0.7656
1792	0.7716
1801	0.7684
1810	0.7846
1819	0.8077
1828	0.8142
1837	0.8165
1846	0.8197
1855	0.8147
1864	0.8103
1873	0.8079
1882	0.8083
1891	0.8103
1900	0.8065
1909	0.7997
1918	0.8057
1927	0.8057
1936	0.8034
1945	0.8023
1954	0.8046
1963	0.8092
1972	0.8111
1981	0.8112
1990	0.8102
1999	0.8085
2008	0.8066
2017	0.8043
2026	0.8013
2035	0.7992
2044	0.7986
2053	0.7988
2062	0.7991
2071	0.7993
2080	0.7995
2089	0.7998
2098	0.7985
2107	0.7969
2116	0.7944
2125	0.7913
2134	0.7882
2143	0.7854
2152	0.7834
2161	0.7822
2170	0.782
2179	0.7818
2188	0.7816
2197	0.7813
2206	0.7801
2215	0.7789
2224	0.7776
2233	0.7756
2242	0.7736
2251	0.7717
2260	0.7699
2269	0.768
2278	0.7633
2287	0.7583
2296	0.7528
2305	0.7521
2314	0.7515
2323	0.7523
2332	0.7535
2341	0.7548
2350	0.7559
2359	0.7562
2368	0.7553
2377	0.7535
2386	0.7517
2395	0.7495
2404	0.7474
2413	0.747
2422	0.7465
2431	0.7465
2440	0.7475
2449	0.7484
2458	0.7468
2467	0.7422
2476	0.7386
2485	0.7354
2494	0.7328
2503	0.731
2512	0.7292
2521	0.7275
2530	0.7261
2539	0.7246
2548	0.7232
2557	0.7218
2566	0.7196
2575	0.7175
2584	0.7153
2593	0.7132
2602	0.7109
2611	0.707
2620	0.7031
2629	0.6976
2638	0.6943
2647	0.6916
2656	0.691
2665	0.6906
2674	0.6923
2683	0.6998
2692	0.6995
2701	0.7001
2710	0.699
2719	0.6979
2728	0.6961
2737	0.6938
2746	0.6909
2755	0.6856
2764	0.6797
2773	0.6685
2782	0.6521
2791	0.6275
2800	0.5805
2809	0.5419
2818	0.4301
2827	0.3124
2836	0.1954
2845	0.1382
2854	0.1212
2863	0.1115
2872	0.1047
2881	0.0975
2890	0.0705
2899	0.0427
2908	0.0368
2917	0.0353
2926	0.0391
2935	0.0508
2944	0.0685
2953	0.0987
2962	0.1741
2971	0.2467
2980	0.3188
2989	0.3905
2998	0.4614
3007	0.4979
3016	0.5173
3025	0.5295
3034	0.5396
3043	0.5461
3052	0.553
3061	0.5606
3070	0.5667
3079	0.572
3088	0.5744
3097	0.575
3106	0.5744
3115	0.5739
3124	0.5721
3133	0.5696
3142	0.5654
3151	0.5608
3160	0.5553
3169	0.5492
3178	0.5429
3187	0.5366
3196	0.5246
3205	0.5064
3214	0.4884
3223	0.4705
3232	0.4526
3241	0.4349
3250	0.4173
3259	0.3997
3268	0.3823
3277	0.3649
3286	0.3476
3295	0.3305
3304	0.3134
3313	0.2965
3322	0.2796
3331	0.2628
3340	0.2571
3349	0.2569
3358	0.2664
3367	0.3004
3376	0.3354
3385	0.3703
3394	0.4049
3403	0.4394
3412	0.4737
3421	0.5079
3430	0.5419
3439	0.5742
3448	0.5889
3457	0.6123
3466	0.6231
3475	0.6296
3484	0.6321
3493	0.6339
3502	0.6341
3511	0.634
3520	0.634
3529	0.6339
3538	0.6336
3547	0.6328
3556	0.632
3565	0.6313
3574	0.6304
3583	0.6296
3592	0.6287
3601	0.628
3610	0.6269
3619	0.6257
3628	0.6244
3637	0.6232
3646	0.622
3655	0.6207
3664	0.6194
3673	0.6182
3682	0.6168
3691	0.6156
3700	0.6144
3709	0.6133
3718	0.6121
3727	0.6109
3736	0.6099
3745	0.6088
3754	0.6077
3763	0.6067
3772	0.6055
3781	0.6043
3790	0.6031
3799	0.6018
3808	0.6007
3817	0.5994
3826	0.5982
3835	0.5971
3844	0.5958
3853	0.5943
3862	0.5925
3871	0.5909
3880	0.5892
3889	0.5875
3898	0.5858
3907	0.584
3916	0.5823
3925	0.5806
3934	0.5788
3943	0.5772
3952	0.5755
3961	0.5737
3970	0.572
3979	0.5704
3988	0.5687
3997	0.5672
