Infrared Spectrum: (2R)-Bornane-10,2-sultam
Formula: C 10 H 17 N O 2 S
CAS: 94594-90-8
State: gas
Origin: EPA-IR VAPOR PHASE LIBRARY
1/CM	ABSORBANCE
549.8	0.01548
559.445	0.01957
569.09	0.02261
578.734	0.02705
588.379	0.02197
598.024	0.01464
607.669	0.01759
617.313	0.0181
626.958	0.0159
636.603	0.0142
646.248	0.01518
655.893	0.01636
665.537	0.01601
675.182	0.01743
684.827	0.01433
694.472	0.01013
704.116	0.00828
713.761	0.00875
723.406	0.01259
733.051	0.01686
742.695	0.01911
752.34	0.02009
761.985	0.01647
771.63	0.01261
781.275	0.01211
790.919	0.01347
800.564	0.01336
810.209	0.01476
819.854	0.02026
829.498	0.0253
839.143	0.01885
848.788	0.01796
858.433	0.01766
868.078	0.00997
877.722	0.00704
887.367	0.00689
897.012	0.00739
906.657	0.00571
916.301	0.00532
925.946	0.00643
935.591	0.00666
945.236	0.00645
954.88	0.00599
964.525	0.00438
974.17	0.00326
983.815	0.00303
993.46	0.00368
1003.1	0.00402
1012.75	0.00633
1022.39	0.00744
1032.04	0.00437
1041.68	0.00581
1051.33	0.00791
1060.97	0.01766
1070.62	0.0279
1080.26	0.0288
1089.91	0.0152
1099.55	0.00783
1109.2	0.01114
1118.84	0.01747
1128.49	0.03188
1138.13	0.08651
1147.78	0.08844
1157.42	0.05535
1167.07	0.08631
1176.71	0.09284
1186.36	0.04582
1196	0.0205
1205.64	0.02264
1215.29	0.03412
1224.93	0.03299
1234.58	0.02268
1244.22	0.02383
1253.87	0.02767
1263.51	0.03317
1273.16	0.03496
1282.8	0.03331
1292.45	0.03222
1302.09	0.02552
1311.74	0.02395
1321.38	0.02445
1331.03	0.036
1340.67	0.06975
1350.32	0.12975
1359.96	0.13201
1369.61	0.07747
1379.25	0.04426
1388.9	0.04332
1398.54	0.05199
1408.18	0.03784
1417.83	0.0243
1427.47	0.01685
1437.12	0.01051
1446.76	0.01221
1456.41	0.01796
1466.05	0.01975
1475.7	0.01841
1485.34	0.01662
1494.99	0.00984
1504.63	0.00474
1514.28	0.00319
1523.92	0.00262
1533.57	0.00228
1543.21	0.00244
1552.86	0.00217
1562.5	0.0018057
1572.15	0.0017548
1581.79	0.0019344
1591.44	0.0018842
1601.08	0.0014562
1610.73	0.0019493
1620.37	0.0016044
1630.01	0.0018181
1639.66	0.0018125
1649.3	0.0016505
1658.95	0.0015149
1668.59	0.001528
1678.24	0.0013826
1687.88	0.0017035
1697.53	0.0015505
1707.17	0.0013561
1716.82	0.00113494
1726.46	0.0014706
1736.11	0.0012406
1745.75	0.0013522
1755.4	0.0011557
1765.04	0.0010493
1774.69	0.00116594
1784.33	0.0012857
1793.98	0.00112141
1803.62	0.0011008
1813.27	0.0012492
1822.91	0.0012683
1832.55	0.00113729
1842.2	0.0013265
1851.84	0.0009853
1861.49	0.00114769
1871.13	0.00117602
1880.78	0.00092
1890.42	0.00113755
1900.07	0.0009851
1909.71	0.001238
1919.36	0.00111602
1929	0.00107656
1938.65	0.0015271
1948.29	0.001109
1957.94	0.00113983
1967.58	0.001249
1977.23	0.0012861
1986.87	0.0013179
1996.52	0.0013893
2006.16	0.0013305
2015.81	0.0013338
2025.45	0.0013172
2035.1	0.00113994
2044.74	0.0010654
2054.38	0.0011894
2064.03	0.0012711
2073.67	0.0015511
2083.32	0.00114992
2092.96	0.0012725
2102.61	0.0013841
2112.25	0.0014141
2121.9	0.0013243
2131.54	0.0013484
2141.19	0.0014487
2150.83	0.0010522
2160.48	0.0013246
2170.12	0.0012179
2179.77	0.0012991
2189.41	0.000931
2199.06	0.0013376
2208.7	0.0012238
2218.35	0.0014466
2227.99	0.0013076
2237.64	0.0015487
2247.28	0.00158
2256.92	0.0014989
2266.57	0.0015001
2276.21	0.0016015
2285.86	0.0015725
2295.5	0.0019445
2305.15	0.0016574
2314.79	0.0017491
2324.44	0.0017131
2334.08	0.0017904
2343.73	0.0016013
2353.37	0.0013559
2363.02	0.0012282
2372.66	0.0014156
2382.31	0.00145
2391.95	0.0011916
2401.6	0.0013446
2411.24	0.0011986
2420.89	0.0013129
2430.53	0.0015336
2440.18	0.0013963
2449.82	0.0015657
2459.47	0.0015359
2469.11	0.0019334
2478.75	0.0021
2488.4	0.0016165
2498.04	0.00209
2507.69	0.0017795
2517.33	0.0016018
2526.98	0.002022
2536.62	0.0012876
2546.27	0.0015565
2555.91	0.0017805
2565.56	0.001589
2575.2	0.0017669
2584.85	0.001374
2594.49	0.0015551
2604.14	0.0015199
2613.78	0.00174
2623.43	0.0016426
2633.07	0.0013783
2642.72	0.0019398
2652.36	0.0015774
2662.01	0.0017851
2671.65	0.0016198
2681.29	0.0015995
2690.94	0.0015978
2700.58	0.0017112
2710.23	0.001666
2719.87	0.00209
2729.52	0.00222
2739.16	0.00227
2748.81	0.00262
2758.45	0.00232
2768.1	0.00244
2777.74	0.00294
2787.39	0.00238
2797.03	0.00276
2806.68	0.00218
2816.32	0.00281
2825.97	0.00305
2835.61	0.00362
2845.26	0.00427
2854.9	0.00594
2864.55	0.00884
2874.19	0.01773
2883.84	0.03657
2893.48	0.05287
2903.12	0.0492
2912.77	0.03911
2922.41	0.03973
2932.06	0.04631
2941.7	0.06324
2951.35	0.10091
2960.99	0.13743
2970.64	0.14097
2980.28	0.06303
2989.93	0.0302
2999.57	0.03401
3009.22	0.02495
3018.86	0.01329
3028.51	0.0086
3038.15	0.00511
3047.8	0.00347
3057.44	0.00336
3067.09	0.00343
3076.73	0.00308
3086.38	0.00322
3096.02	0.00285
3105.67	0.00236
3115.31	0.00298
3124.95	0.00263
3134.6	0.00276
3144.24	0.00222
3153.89	0.0015572
3163.53	0.0013963
3173.18	0.0015314
3182.82	0.0012258
3192.47	0.0014193
3202.11	0.0014932
3211.76	0.0015528
3221.4	0.0014003
3231.05	0.0016464
3240.69	0.0013442
3250.34	0.0016253
3259.98	0.0013891
3269.63	0.0010385
3279.27	0.0009883
3288.92	0.0010131
3298.56	0.0010254
3308.21	0.0016419
3317.85	0.0020654
3327.49	0.0020786
3337.14	0.0018809
3346.78	0.00418
3356.43	0.0102
3366.07	0.01611
3375.72	0.01624
3385.36	0.00934
3395.01	0.00304
3404.65	0.00259
3414.3	0.00228
3423.94	0.0017366
3433.59	0.0017577
3443.23	0.0014722
3452.88	0.0010588
3462.52	0.0014944
3472.17	0.0016454
3481.81	0.000884
3491.46	0.0013072
3501.1	0.0013088
3510.75	0.0013855
3520.39	0.000722
3530.04	0.000955
3539.68	0.0013746
3549.32	0.00107846
3558.97	0.0018523
3568.61	0.0013349
3578.26	0.0014052
3587.9	0.0013986
3597.55	0.000918
3607.19	0.000966
3616.84	0.000935
3626.48	0.0011193
3636.13	0.001183
3645.77	0.000897
3655.42	0.000336
3665.06	0.0016437
3674.71	0.0014111
3684.35	0.0013072
3694	0.0015019
3703.64	0.000768
3713.29	0.0012289
3722.93	0.000728
3732.58	0.000905
3742.22	0.0013655
3751.86	0.0014248
3761.51	0.000308
3771.15	0.000638
3780.8	0.0014344
3790.44	0.0012854
3800.09	0.00112677
3809.73	0.0013314
3819.38	0.0012082
3829.02	0.000921
3838.67	0.0011952
3848.31	0.000822
3857.96	0.000865
3867.6	0.00108707
3877.25	0.0012869
3886.89	0.0010377
3896.54	0.001445
3906.18	0.0016838
3915.83	0.0018584
3925.47	0.000647
3935.12	0.0019348
3944.76	0.0014107
3954.41	0.00116042
3964.05	0.0010391
3973.69	0.0016531
3983.34	0.0015261
3992.98	0.00110377
