Infrared Spectrum: CYCLODODECANONE OXIME
Formula: C12 H23 N O
CAS: 946-89-4
State: SOLID (KBr PELLET)
Melting point: 133-134 C
Class: COBLENTZ
Instrument: Not specified, most likely a prism, grating, or hybrid spectrometer.
Sampling: TRANSMISSION
Resolution: 4
Origin: TENNESSEE EASTMAN COMPANY, RESEARCH LABORATORIES
MICROMETERS	TRANSMITTANCE
2.164	0.865
2.20492	0.865
2.24583	0.858
2.28675	0.838
2.32766	0.831
2.36858	0.833
2.40949	0.838
2.45041	0.839
2.49133	0.839
2.53224	0.843
2.57316	0.843
2.61407	0.846
2.65499	0.853
2.69591	0.853
2.73682	0.826
2.77774	0.761
2.81865	0.701
2.85957	0.642
2.90048	0.567
2.9414	0.449
2.98232	0.347
3.02323	0.236
3.06415	0.172
3.10506	0.173
3.14598	0.31
3.18689	0.332
3.22781	0.407
3.26873	0.511
3.30964	0.58
3.35056	0.398
3.39147	0
3.43239	0.122
3.47331	0.144
3.51422	0.49
3.55514	0.775
3.59605	0.827
3.63697	0.844
3.67788	0.862
3.7188	0.873
3.75972	0.87
3.80063	0.88
3.84155	0.923
3.88246	0.935
3.92338	0.952
3.96429	0.959
4.00521	0.959
4.04613	0.962
4.08704	0.967
4.12796	0.967
4.16887	0.962
4.20979	0.96
4.25071	0.962
4.29162	0.964
4.33254	0.964
4.37345	0.959
4.41437	0.955
4.45528	0.954
4.4962	0.954
4.53712	0.954
4.57803	0.954
4.61895	0.954
4.65986	0.955
4.70078	0.959
4.7417	0.957
4.78261	0.957
4.82353	0.957
4.86444	0.957
4.90536	0.959
4.94627	0.96
4.98719	0.965
5.02811	0.969
5.06902	0.969
5.10994	0.969
5.15085	0.971
5.19177	0.969
5.23268	0.971
5.2736	0.971
5.31452	0.971
5.35543	0.969
5.39635	0.971
5.43726	0.971
5.47818	0.972
5.5191	0.974
5.56001	0.974
5.60093	0.974
5.64184	0.974
5.68276	0.972
5.72367	0.965
5.76459	0.962
5.80551	0.96
5.84642	0.955
5.88734	0.952
5.92825	0.931
5.96917	0.829
6.01008	0.846
6.051	0.901
6.09192	0.904
6.13283	0.909
6.17375	0.911
6.21466	0.93
6.25558	0.938
6.2965	0.945
6.33741	0.948
6.37833	0.943
6.41924	0.936
6.46016	0.933
6.50107	0.928
6.54199	0.919
6.58291	0.911
6.62382	0.89
6.66474	0.868
6.70565	0.783
6.74657	0.628
6.78748	0.158
6.8284	0.599
6.86932	0.516
6.91023	0.279
6.95115	0.477
6.99206	0.592
7.03298	0.592
7.0739	0.744
7.11481	0.79
7.15573	0.809
7.19664	0.821
7.23756	0.827
7.27847	0.79
7.31939	0.712
7.36031	0.798
7.40122	0.8
7.44214	0.751
7.48305	0.819
7.52397	0.855
7.56488	0.89
7.6058	0.906
7.64672	0.889
7.68763	0.896
7.72855	0.833
7.76946	0.836
7.81038	0.904
7.8513	0.918
7.89221	0.911
7.93313	0.908
7.97404	0.771
8.01496	0.678
8.05587	0.71
8.09679	0.676
8.13771	0.798
8.17862	0.853
8.21954	0.916
8.26045	0.919
8.30137	0.96
8.34228	0.928
8.3832	0.926
8.42412	0.933
8.46503	0.919
8.50595	0.897
8.54686	0.836
8.58778	0.867
8.6287	0.89
8.66961	0.862
8.71053	0.904
8.75144	0.909
8.79236	0.894
8.83327	0.913
8.87419	0.925
8.91511	0.925
8.95602	0.926
8.99694	0.928
9.03785	0.921
9.07877	0.916
9.11969	0.919
9.1606	0.911
9.20152	0.896
9.24243	0.892
9.28335	0.889
9.32426	0.899
9.36518	0.909
9.4061	0.914
9.44701	0.863
9.48793	0.839
9.52884	0.896
9.56976	0.906
9.61067	0.902
9.65159	0.896
9.69251	0.824
9.73342	0.814
9.77434	0.85
9.81525	0.87
9.85617	0.889
9.89709	0.896
9.938	0.911
9.97892	0.921
10.0198	0.918
10.0607	0.913
10.1017	0.902
10.1426	0.855
10.1835	0.741
10.2244	0.664
10.2653	0.678
10.3062	0.7
10.3472	0.742
10.3881	0.689
10.429	0.475
10.4699	0.252
10.5108	0.405
10.5517	0.577
10.5927	0.448
10.6336	0.398
10.6745	0.586
10.7154	0.715
10.7563	0.737
10.7972	0.681
10.8381	0.487
10.8791	0.321
10.92	0.359
10.9609	0.327
11.0018	0.568
11.0427	0.763
11.0836	0.829
11.1246	0.885
11.1655	0.923
11.2064	0.942
11.2473	0.954
11.2882	0.955
11.3291	0.959
11.3701	0.964
11.411	0.965
11.4519	0.942
11.4928	0.882
11.5337	0.882
11.5746	0.948
11.6155	0.965
11.6565	0.964
11.6974	0.952
11.7383	0.925
11.7792	0.867
11.8201	0.844
11.861	0.904
11.902	0.926
11.9429	0.928
11.9838	0.928
12.0247	0.911
12.0656	0.858
12.1065	0.751
12.1475	0.616
12.1884	0.655
12.2293	0.756
12.2702	0.763
12.3111	0.73
12.352	0.797
12.3929	0.841
12.4339	0.86
12.4748	0.865
12.5157	0.853
12.5566	0.822
12.5975	0.792
12.6384	0.778
12.6794	0.768
12.7203	0.742
12.7612	0.696
12.8021	0.613
12.843	0.575
12.8839	0.574
12.9249	0.568
12.9658	0.541
13.0067	0.516
13.0476	0.499
13.0885	0.483
13.1294	0.477
13.1703	0.475
13.2113	0.48
13.2522	0.49
13.2931	0.5
13.334	0.511
13.3749	0.521
13.4158	0.524
13.4568	0.507
13.4977	0.487
13.5386	0.487
13.5795	0.54
13.6204	0.591
13.6613	0.594
13.7023	0.545
13.7432	0.475
13.7841	0.485
13.825	0.599
13.8659	0.667
13.9068	0.705
13.9477	0.732
13.9887	0.752
14.0296	0.768
14.0705	0.78
14.1114	0.79
14.1523	0.792
14.1932	0.79
14.2342	0.773
14.2751	0.741
14.316	0.696
14.3569	0.65
14.3978	0.65
14.4387	0.688
14.4797	0.734
14.5206	0.77
14.5615	0.792
14.6024	0.802
14.6433	0.807
14.6842	0.81
14.7251	0.816
14.7661	0.819
14.807	0.819
14.8479	0.819
14.8888	0.816
14.9297	0.804
14.9706	0.793
15.0116	0.783
15.0525	0.778
15.0934	0.778
15.1343	0.776
15.1752	0.771
15.2161	0.764
15.2571	0.754
15.298	0.746
15.3389	0.735
15.3798	0.73
15.4207	0.725
15.4616	0.718
15.5025	0.706
15.5435	0.7
15.5844	0.693
15.6253	0.684
15.6662	0.678
15.7071	0.674
15.748	0.672
15.789	0.669
15.8299	0.659
15.8708	0.657
15.9117	0.649
15.9526	0.649
