Infrared Spectrum: Benzyl phenyl ether
Formula: C 13 H 12 O
CAS: 946-80-5
State: gas
Instrument: HP-GC/MS/IRD
Origin: NIST Mass Spectrometry Data Center
1/CM	ABSORBANCE
550	0.0008418
562	9.43e-05
574	3.68e-05
586	1.84e-05
598	0.0002576
610	0.0004301
622	0.0007153
634	0.000276
646	0.000345
658	0.0007061
670	0.002162
682	0.00529
694	0.0076245
706	0.0049795
718	0.0040986
730	0.0059685
742	0.0079626
754	0.0082409
766	0.0042596
778	0.002599
790	0.0018538
802	0.0012719
814	0.0006992
826	0.0005129
838	0.0007866
850	0.0013363
862	0.0008464
874	0.0007705
886	0.0009476
898	0.0008694
910	0.0007774
922	0.0005221
934	0.0003473
946	0.0003381
958	0.000621
970	0.0012765
982	0.0024771
994	0.0036501
1006	0.0045195
1018	0.0068701
1030	0.0086181
1042	0.006532
1054	0.0029923
1066	0.0022632
1078	0.0018998
1090	0.0010879
1102	0.0007337
1114	0.0004393
1126	0.0002484
1138	0.0003749
1150	0.0012052
1162	0.0033281
1174	0.0045011
1186	0.003473
1198	0.0066585
1210	0.0155756
1222	0.0196075
1234	0.022264
1246	0.017802
1258	0.0081949
1270	0.0053613
1282	0.0052509
1294	0.0049473
1306	0.0039767
1318	0.0026657
1330	0.0021298
1342	0.0015801
1354	0.001311
1366	0.0024748
1378	0.0037444
1390	0.0014743
1402	0.0005497
1414	0.00046
1426	0.0006509
1438	0.0013156
1450	0.0026128
1462	0.004301
1474	0.0050577
1486	0.0111343
1498	0.0175398
1510	0.0047702
1522	0.0016629
1534	0.0010902
1546	0.0010603
1558	0.0015893
1570	0.0029072
1582	0.0068172
1594	0.013754
1606	0.007958
1618	0.0019297
1630	0.0007958
1642	0.0004163
1654	0.0002714
1666	0.0001541
1678	0.0001932
1690	0.000253
1702	0.0002346
1714	0.0002024
1726	0.0002116
1738	0.000253
1750	0.0003036
1762	0.0004002
1774	0.0003036
1786	0.0003151
1798	0.0004669
1810	0.0003174
1822	0.0002737
1834	0.0003036
1846	0.0003335
1858	0.0003496
1870	0.0003243
1882	0.000299
1894	0.0001909
1906	0.0002921
1918	0.0004255
1930	0.0005543
1942	0.0006118
1954	0.0005175
1966	0.0003312
1978	0.0002185
1990	0.0002576
2002	0.000276
2014	0.0002829
2026	0.0003105
2038	0.0003059
2050	0.0002323
2062	0.0001909
2074	0.0001886
2086	0.0002093
2098	0.0001656
2110	9.43e-05
2122	5.52e-05
2134	5.29e-05
2146	3.91e-05
2158	2.76e-05
2170	2.76e-05
2182	2.99e-05
2194	2.3e-05
2206	5.06e-05
2218	2.99e-05
2230	5.06e-05
2242	6.44e-05
2254	0.0001012
2266	0.000115
2278	0.0001058
2290	0.0001196
2302	0.0001357
2314	0.0001541
2326	0.000138
2338	0.0001472
2350	0.0001334
2362	8.51e-05
2374	0.0001173
2386	0.0001541
2398	0.0001679
2410	0.0001587
2422	0.0001518
2434	0.0002116
2446	0.0002323
2458	0.0002093
2470	0.0002277
2482	0.0001748
2494	0.0001403
2506	0.0001288
2518	0.0001518
2530	0.0001449
2542	0.0001817
2554	0.000138
2566	0.0001035
2578	8.97e-05
2590	9.43e-05
2602	9.66e-05
2614	0.0001012
2626	0.0001173
2638	7.82e-05
2650	2.3e-05
2662	6.44e-05
2674	8.51e-05
2686	5.75e-05
2698	7.59e-05
2710	8.28e-05
2722	0.0001495
2734	0.0001127
2746	0.0001081
2758	7.59e-05
2770	0.0001518
2782	0.0001449
2794	0.0002093
2806	0.0002208
2818	0.0003335
2830	0.0004991
2842	0.0006026
2854	0.0008625
2866	0.0013639
2878	0.0020309
2890	0.0021643
2902	0.00184
2914	0.0017756
2926	0.0018308
2938	0.0020263
2950	0.0021367
2962	0.0015502
2974	0.0009338
2986	0.0006486
2998	0.0007866
3010	0.0013708
3022	0.0028244
3034	0.0052923
3046	0.0059547
3058	0.0049427
3070	0.0071668
3082	0.0062169
3094	0.0038847
3106	0.0026979
3118	0.0012581
3130	0.0005014
3142	0.0002277
3154	0.0001472
3166	0.0001564
3178	0.0001288
3190	0.0001058
3202	4.6e-05
3214	0
3226	2.99e-05
3238	4.83e-05
3250	0.0001035
3262	6.67e-05
3274	3.45e-05
3286	0.0001127
3298	7.59e-05
3310	0.0001518
3322	8.74e-05
3334	0.0001564
3346	0.0001403
3358	0.0001311
3370	1.84e-05
3382	7.36e-05
3394	0.0001081
3406	0.0001265
3418	5.98e-05
3430	0.0001426
3442	6.67e-05
3454	7.82e-05
3466	9.89e-05
3478	4.14e-05
3490	6.21e-05
3502	9.66e-05
3514	8.97e-05
3526	0.0001035
3538	0.0001242
3550	8.51e-05
3562	0.0001288
3574	9.89e-05
3586	0.0001449
3598	0.0001334
3610	0.0001265
3622	0.0001334
3634	0.0001288
3646	0.0001081
3658	0.0001863
3670	0.0001909
3682	0.0002369
3694	0.0001449
3706	0.0001518
3718	0.0001978
3730	0.000161
3742	0.0001081
3754	9.43e-05
3766	0.0001955
3778	0.0001564
3790	0.0001219
3802	0.0001656
3814	0.00023
3826	0.0002047
3838	0.0002484
