Infrared Spectrum: Ethyl trans-2-phenylcyclopropanecarboxylate
Formula: C 12 H 14 O 2
CAS: 946-39-4
State: gas
Origin: EPA-IR VAPOR PHASE LIBRARY
1/CM	ABSORBANCE
549.9	0.00885
559.547	0.01326
569.193	0.01145
578.84	0.00658
588.486	0.0046813
598.133	0.0039544
607.779	0.003846
617.426	0.0039729
627.072	0.004732
636.719	0.00629
646.365	0.00641
656.012	0.00846
665.658	0.01489
675.305	0.02931
684.951	0.051
694.598	0.07144
704.245	0.05524
713.891	0.0336
723.538	0.02466
733.184	0.02913
742.831	0.04859
752.477	0.06431
762.124	0.04413
771.77	0.02909
781.417	0.02422
791.063	0.01744
800.71	0.01253
810.356	0.01099
820.003	0.01154
829.649	0.01429
839.296	0.02116
848.943	0.03511
858.589	0.04386
868.236	0.02944
877.882	0.02175
887.529	0.01821
897.175	0.01671
906.822	0.01694
916.468	0.01951
926.115	0.02719
935.761	0.03706
945.408	0.0357
955.054	0.02213
964.701	0.01482
974.347	0.01301
983.994	0.01413
993.64	0.01837
1003.29	0.02692
1012.93	0.0519
1022.58	0.06026
1032.23	0.06332
1041.87	0.0994
1051.52	0.09653
1061.17	0.07225
1070.81	0.06475
1080.46	0.07348
1090.11	0.06591
1099.75	0.0652
1109.4	0.07514
1119.05	0.08252
1128.69	0.06034
1138.34	0.07379
1147.99	0.12844
1157.63	0.28173
1167.28	0.60165
1176.92	0.72477
1186.57	0.42167
1196.22	0.17277
1205.86	0.09845
1215.51	0.09976
1225.16	0.0984
1234.8	0.07925
1244.45	0.11473
1254.1	0.18916
1263.74	0.16239
1273.39	0.0815
1283.04	0.05733
1292.68	0.06329
1302.33	0.08243
1311.98	0.11564
1321.62	0.15295
1331.27	0.13869
1340.92	0.09128
1350.56	0.04609
1360.21	0.03761
1369.86	0.04918
1379.5	0.05755
1389.15	0.08697
1398.79	0.11855
1408.44	0.14435
1418.09	0.08877
1427.73	0.04985
1437.38	0.05909
1447.03	0.07226
1456.67	0.07066
1466.32	0.06357
1475.97	0.05012
1485.61	0.03667
1495.26	0.04114
1504.91	0.0359
1514.55	0.0166
1524.2	0.01259
1533.85	0.01173
1543.49	0.01095
1553.14	0.01041
1562.79	0.01082
1572.43	0.01171
1582.08	0.01477
1591.73	0.02316
1601.37	0.03791
1611.02	0.03154
1620.67	0.01289
1630.31	0.00974
1639.96	0.00958
1649.6	0.01058
1659.25	0.0116
1668.9	0.0124
1678.54	0.01391
1688.19	0.0176
1697.84	0.02532
1707.48	0.03541
1717.13	0.05088
1726.78	0.10959
1736.42	0.3062
1746.07	0.4847
1755.72	0.26828
1765.36	0.08695
1775.01	0.04124
1784.66	0.03062
1794.3	0.02466
1803.95	0.0189
1813.6	0.01478
1823.24	0.01157
1832.89	0.00948
1842.54	0.00838
1852.18	0.00845
1861.83	0.00908
1871.47	0.00995
1881.12	0.00995
1890.77	0.00873
1900.41	0.00787
1910.06	0.00742
1919.71	0.00769
1929.35	0.00821
1939	0.00888
1948.65	0.00955
1958.29	0.00806
1967.94	0.00557
1977.59	0.00526
1987.23	0.00526
1996.88	0.00528
2006.53	0.00565
2016.17	0.00631
2025.82	0.00698
2035.47	0.00694
2045.11	0.00614
2054.76	0.00533
2064.41	0.00501
2074.05	0.00521
2083.7	0.00581
2093.35	0.00612
2102.99	0.00556
2112.64	0.004823
2122.28	0.0043802
2131.93	0.00400664
2141.58	0.003605
2151.22	0.003517
2160.87	0.003493
2170.52	0.003574
2180.16	0.003814
2189.81	0.00403431
2199.46	0.00401748
2209.1	0.003743
2218.75	0.003475
2228.4	0.003351
2238.04	0.003339
2247.69	0.00343
2257.34	0.00348
2266.98	0.003484
2276.63	0.00338
2286.28	0.00319
2295.92	0.003253
2305.57	0.003597
2315.22	0.0042143
2324.86	0.0043058
2334.51	0.0048685
2344.16	0.00516
2353.8	0.004815
2363.45	0.0043211
2373.09	0.003859
2382.74	0.003515
2392.39	0.003237
2402.03	0.00308
2411.68	0.003032
2421.33	0.003038
2430.97	0.003346
2440.62	0.003527
2450.27	0.003602
2459.91	0.003673
2469.56	0.003393
2479.21	0.003134
2488.85	0.00296
2498.5	0.0029
2508.15	0.0028
2517.79	0.0026
2527.44	0.00242
2537.09	0.00254
2546.73	0.00258
2556.38	0.00262
2566.03	0.00255
2575.67	0.00256
2585.32	0.00262
2594.96	0.00279
2604.61	0.00286
2614.26	0.00267
2623.9	0.00241
2633.55	0.00223
2643.2	0.00207
2652.84	0.00201
2662.49	0.00184
2672.14	0.00185
2681.78	0.00184
2691.43	0.00191
2701.08	0.00166
2710.72	0.00171
2720.37	0.0019
2730.02	0.00198
2739.66	0.00208
2749.31	0.00213
2758.96	0.00256
2768.6	0.00279
2778.25	0.00291
2787.9	0.00294
2797.54	0.00299
2807.19	0.003168
2816.84	0.003682
2826.48	0.0042459
2836.13	0.0046059
2845.77	0.00524
2855.42	0.00651
2865.07	0.00837
2874.71	0.01227
2884.36	0.0174
2894.01	0.01861
2903.65	0.02144
2913.3	0.02576
2922.95	0.02619
2932.59	0.03198
2942.24	0.04701
2951.89	0.04427
2961.53	0.04339
2971.18	0.05705
2980.83	0.08829
2990.47	0.08924
3000.12	0.06067
3009.77	0.05329
3019.41	0.05785
3029.06	0.06633
3038.71	0.06843
3048.35	0.0495
3058	0.04547
3067.64	0.0711
3077.29	0.05942
3086.94	0.03874
3096.58	0.03533
3106.23	0.02169
3115.88	0.01265
3125.52	0.00609
3135.17	0.003743
3144.82	0.003035
3154.46	0.00276
3164.11	0.0023
3173.76	0.00155
3183.4	0.00134
3193.05	0.00118
3202.7	0.00073
3212.34	0.00088
3221.99	0.00048
3231.64	0.00028
3241.28	0.0003
3250.93	6e-05
3260.58	0.00013
3270.22	0.00018
3279.87	7e-05
3289.52	6e-05
3299.16	0.00025
3308.81	0.00024
3318.45	0.00038
3328.1	0.00039
3337.75	0.00064
3347.39	0.00052
3357.04	0.00044
3366.69	0.00058
3376.33	0.0007
3385.98	0.00081
3395.63	0.00067
3405.27	0.00083
3414.92	0.00093
3424.57	0.00123
3434.21	0.00129
3443.86	0.00166
3453.51	0.00248
3463.15	0.00402985
3472.8	0.0045701
3482.45	0.003328
3492.09	0.00236
3501.74	0.00162
3511.39	0.00169
3521.03	0.00133
3530.68	0.00144
3540.33	0.00113
3549.97	0.0013
3559.62	0.00149
3569.26	0.00135
3578.91	0.00143
3588.56	0.00131
3598.2	0.00171
3607.85	0.0015
3617.5	0.0015
3627.14	0.00149
3636.79	0.00178
3646.44	0.00177
3656.08	0.00173
3665.73	0.00189
3675.38	0.00189
3685.02	0.00172
3694.67	0.00179
3704.32	0.00176
3713.96	0.00186
3723.61	0.00182
3733.26	0.00184
3742.9	0.00189
3752.55	0.00188
3762.2	0.00203
3771.84	0.00208
3781.49	0.00201
3791.13	0.00217
3800.78	0.00203
3810.43	0.00208
3820.07	0.00216
3829.72	0.00211
3839.37	0.00204
3849.01	0.00207
3858.66	0.00199
3868.31	0.00208
3877.95	0.00194
3887.6	0.00216
3897.25	0.00211
3906.89	0.00216
3916.54	0.00222
3926.19	0.00212
3935.83	0.00218
3945.48	0.00218
3955.13	0.00221
3964.77	0.00227
3974.42	0.00227
3984.07	0.00233
3993.71	0.00263
