Infrared Spectrum: 2-Benzylcyclohexanone
Formula: C 13 H 16 O
CAS: 946-33-8
State: gas
Origin: EPA-IR VAPOR PHASE LIBRARY
1/CM	ABSORBANCE
549.8	0.003375
559.445	0.004285
569.09	0.002415
578.734	0.003105
588.379	0.001815
598.024	0.002175
607.669	0.001815
617.313	0.002045
626.958	0.0013059
636.603	0.002325
646.248	0.002405
655.893	0.003175
665.537	0.003115
675.182	0.004755
684.827	0.009685
694.472	0.019895
704.116	0.018995
713.761	0.013265
723.406	0.013735
733.051	0.012005
742.695	0.009965
752.34	0.009475
761.985	0.005995
771.63	0.003715
781.275	0.003535
790.919	0.004045
800.564	0.003515
810.209	0.003165
819.854	0.002475
829.498	0.002575
839.143	0.002555
848.788	0.003265
858.433	0.003685
868.078	0.003085
877.722	0.003635
887.367	0.003705
897.012	0.002755
906.657	0.002795
916.301	0.003355
925.946	0.002685
935.591	0.002745
945.236	0.002395
954.88	0.002755
964.525	0.003325
974.17	0.002525
983.815	0.001935
993.46	0.002665
1003.1	0.001585
1012.75	0.003785
1022.39	0.005945
1032.04	0.006575
1041.68	0.004895
1051.33	0.007075
1060.97	0.009085
1070.62	0.007515
1080.26	0.006645
1089.91	0.006605
1099.55	0.005575
1109.2	0.009225
1118.84	0.014615
1128.49	0.015585
1138.13	0.007425
1147.78	0.005265
1157.42	0.002765
1167.07	0.002985
1176.71	0.002765
1186.36	0.004005
1196	0.004125
1205.64	0.006485
1215.29	0.007135
1224.93	0.007775
1234.58	0.006715
1244.22	0.006525
1253.87	0.005355
1263.51	0.004435
1273.16	0.004285
1282.8	0.003315
1292.45	0.004065
1302.09	0.005305
1311.74	0.007605
1321.38	0.006765
1331.03	0.006425
1340.67	0.006635
1350.32	0.005695
1359.96	0.005725
1369.61	0.004675
1379.25	0.003175
1388.9	0.002815
1398.54	0.002715
1408.18	0.003325
1417.83	0.004585
1427.47	0.007165
1437.12	0.010075
1446.76	0.014395
1456.41	0.014265
1466.05	0.007655
1475.7	0.004865
1485.34	0.006205
1494.99	0.012045
1504.63	0.006655
1514.28	0.002595
1523.92	0.002275
1533.57	0.002345
1543.21	0.002135
1552.86	0.001845
1562.5	0.001945
1572.15	0.002315
1581.79	0.003465
1591.44	0.004795
1601.08	0.007065
1610.73	0.005285
1620.37	0.002645
1630.01	0.002345
1639.66	0.002605
1649.3	0.002565
1658.95	0.002665
1668.59	0.003565
1678.24	0.004675
1687.88	0.006115
1697.53	0.009625
1707.17	0.021665
1716.82	0.051565
1726.46	0.073525
1736.11	0.048295
1745.75	0.019305
1755.4	0.009275
1765.04	0.005375
1774.69	0.004255
1784.33	0.003785
1793.98	0.003635
1803.62	0.002995
1813.27	0.002295
1822.91	0.002105
1832.55	0.001855
1842.2	0.001835
1851.84	0.002165
1861.49	0.002235
1871.13	0.002135
1880.78	0.002165
1890.42	0.001805
1900.07	0.001705
1909.71	0.001595
1919.36	0.001905
1929	0.002245
1938.65	0.002445
1948.29	0.002415
1957.94	0.001935
1967.58	0.0014828
1977.23	0.0012985
1986.87	0.0015222
1996.52	0.0011635
2006.16	0.001267
2015.81	0.0012138
2025.45	0.0012261
2035.1	0.0013878
2044.74	0.0010544
2054.38	0.0011989
2064.03	0.0011975
2073.67	0.0011752
2083.32	0.0012735
2092.96	0.0011706
2102.61	0.0012729
2112.25	0.0012039
2121.9	0.0010234
2131.54	0.001372
2141.19	0.0012273
2150.83	0.0013289
2160.48	0.0011944
2170.12	0.0010433
2179.77	0.0015318
2189.41	0.0012118
2199.06	0.0012214
2208.7	0.0012208
2218.35	0.0013214
2227.99	0.0010841
2237.64	0.0011529
2247.28	0.0012035
2256.92	0.0012215
2266.57	0.0012316
2276.21	0.0009743
2285.86	0.0010613
2295.5	0.0011915
2305.15	0.0012549
2314.79	0.0014225
2324.44	0.0011546
2334.08	0.0014128
2343.73	0.0014898
2353.37	0.0012102
2363.02	0.0012005
2372.66	0.0012924
2382.31	0.0012087
2391.95	0.0012902
2401.6	0.0014167
2411.24	0.001486
2420.89	0.0011124
2430.53	0.0010536
2440.18	0.0011057
2449.82	0.0013943
2459.47	0.0012582
2469.11	0.0011001
2478.75	0.0012013
2488.4	0.001178
2498.04	0.0011559
2507.69	0.0011672
2517.33	0.0012053
2526.98	0.0013734
2536.62	0.0014005
2546.27	0.0014304
2555.91	0.0012746
2565.56	0.0010812
2575.2	0.0011214
2584.85	0.0011145
2594.49	0.001615
2604.14	0.0013425
2613.78	0.001615
2623.43	0.0014957
2633.07	0.0014614
2642.72	0.001915
2652.36	0.001117
2662.01	0.0013985
2671.65	0.001695
2681.29	0.001845
2690.94	0.0012022
2700.58	0.0011538
2710.23	0.0014395
2719.87	0.0013439
2729.52	0.0014227
2739.16	0.0014895
2748.81	0.0014778
2758.45	0.001436
2768.1	0.0014972
2777.74	0.001985
2787.39	0.002315
2797.03	0.002805
2806.68	0.002505
2816.32	0.002355
2825.97	0.002965
2835.61	0.004415
2845.26	0.006775
2854.9	0.012965
2864.55	0.023285
2874.19	0.027735
2883.84	0.018055
2893.48	0.013005
2903.12	0.014615
2912.77	0.019325
2922.41	0.029335
2932.06	0.051165
2941.7	0.074945
2951.35	0.063525
2960.99	0.028885
2970.64	0.020135
2980.28	0.011255
2989.93	0.006195
2999.57	0.004835
3009.22	0.006265
3018.86	0.010005
3028.51	0.017525
3038.15	0.016025
3047.8	0.009145
3057.44	0.010015
3067.09	0.017635
3076.73	0.015625
3086.38	0.009985
3096.02	0.006565
3105.67	0.004715
3115.31	0.003405
3124.95	0.0014733
3134.6	0.0011139
3144.24	0.0010217
3153.89	0.0013227
3163.53	0.0012853
3173.18	0.0011097
3182.82	0.0010965
3192.47	0.0010094
3202.11	0.0014379
3211.76	0.0010186
3221.4	0.0011995
3231.05	0.0015114
3240.69	0.0013117
3250.34	0.0011651
3259.98	0.0012411
3269.63	0.00133
3279.27	0.0013069
3288.92	0.0010149
3298.56	0.0011116
3308.21	0.0008615
3317.85	0.0009342
3327.49	0.0005363
3337.14	0.0011715
3346.78	0.0006991
3356.43	0.0010606
3366.07	0.0007062
3375.72	0.0008767
3385.36	0.0011715
3395.01	0.0012099
3404.65	0.001533
3414.3	0.001795
3423.94	0.001795
3433.59	0.0015378
3443.23	0.001705
3452.88	0.0015486
3462.52	0.0014417
3472.17	0.0007736
3481.81	0.0013047
3491.46	0.0009482
3501.1	0.001255
3510.75	0.0013163
3520.39	0.0009612
3530.04	0.0011516
3539.68	0.0014193
3549.32	0.0006769
3558.97	0.0008049
3568.61	0.0006555
3578.26	0.000393
3587.9	0.0011242
3597.55	0.00062394
3607.19	0.0012441
3616.84	0.001745
3626.48	0.001655
3636.13	0.0006897
3645.77	0.000784
3655.42	0.0007123
3665.06	0.0012058
3674.71	0.0013216
3684.35	0.0009663
3694	0.001795
3703.64	0.0010708
3713.29	0.0011589
3722.93	0.0010181
3732.58	0.0005236
3742.22	0.001536
3751.86	0.0008616
3761.51	0.0012293
3771.15	0.0012144
3780.8	0.0014862
3790.44	0.0007461
3800.09	0.00065492
3809.73	0.0011786
3819.38	0.0015466
3829.02	0.0005314
3838.67	0.0013665
3848.31	0.0004637
3857.96	0.0008095
3867.6	3e-06
3877.25	0.0007861
3886.89	0.00055111
3896.54	0.00060846
3906.18	0.00060702
3915.83	0.0011932
3925.47	0.0010475
3935.12	0.0010974
3944.76	0.001705
3954.41	0.0001
3964.05	0.0008332
3973.69	0.0009246
3983.34	0.0012436
3992.98	0.0014722
