Infrared Spectrum: Urea], 1,1'-p-phenylene-bis[3-methyl-3-nitroso-
Formula: C10 H12 N6 O4
CAS: 94602-15-0
State: SOLID (1 mg / 650 mg KBr DISC)
Class: COBLENTZ III
Instrument: PERKIN-ELMER 221 (GRATING)
Instrument parameters: FILTER AT 980 CM^-^1. GRATING 4000-1428 CM^-^1, NaCl PRISM 1428-650 CM^-^1
Resolution: 2
Origin: SOUTHERN RESEARCH INSTITUTE
1/CM	TRANSMITTANCE
602.523	0.3713
611.53	0.3753
620.536	0.3837
629.543	0.4046
638.549	0.5119
647.556	0.591
656.562	0.6496
665.569	0.6285
674.575	0.704
683.582	0.7848
692.589	0.8236
701.595	0.8219
710.602	0.8114
719.608	0.7941
728.615	0.7663
737.621	0.7107
746.628	0.3626
755.634	0.7707
764.641	0.7542
773.648	0.4238
782.654	0.1435
791.661	0.8596
800.667	0.8255
809.674	0.5799
818.68	0.5679
827.687	0.2983
836.693	0.2875
845.7	0.7122
854.707	0.8802
863.713	0.8719
872.72	0.8033
881.726	0.669
890.733	0.548
899.739	0.759
908.746	0.8047
917.752	0.7611
926.759	0.706
935.766	0.6246
944.772	0.5489
953.779	0.4377
962.785	0.2557
971.792	0.1828
980.798	0.1397
989.805	0.1253
998.811	0.2645
1007.82	0.5191
1016.82	0.7181
1025.83	0.7461
1034.84	0.8212
1043.84	0.8188
1052.85	0.8089
1061.86	0.7828
1070.86	0.7361
1079.87	0.67
1088.88	0.5522
1097.88	0.3533
1106.89	0.0984
1115.9	0.1324
1124.9	0.2567
1133.91	0.4249
1142.92	0.6956
1151.92	0.7721
1160.93	0.7769
1169.94	0.7662
1178.94	0.7349
1187.95	0.693
1196.96	0.6145
1205.96	0.3562
1214.97	0.2686
1223.98	0.3337
1232.98	0.4125
1241.99	0.6271
1250.99	0.7099
1260	0.7511
1269.01	0.7587
1278.01	0.7457
1287.02	0.6888
1296.03	0.508
1305.03	0.6487
1314.04	0.5557
1323.05	0.4806
1332.05	0.5832
1341.06	0.6041
1350.07	0.5515
1359.07	0.5481
1368.08	0.5819
1377.09	0.5698
1386.09	0.5018
1395.1	0.3841
1404.11	0.1408
1413.11	0.1358
1422.12	0.45
1431.13	0.4568
1440.13	0.4299
1449.14	0.3793
1458.15	0.3281
1467.15	0.1924
1476.16	0.08
1485.17	0.0837
1494.17	0.2622
1503.18	0.419
1512.19	0.3448
1521.19	0.1639
1530.2	0.2225
1539.2	0.1473
1548.21	0.0314
1557.22	0.0507
1566.22	0.1215
1575.23	0.2583
1584.24	0.4867
1593.24	0.556
1602.25	0.6892
1611.26	0.7181
1620.26	0.7194
1629.27	0.702
1638.28	0.6941
1647.28	0.6874
1656.29	0.6478
1665.3	0.5778
1674.3	0.4923
1683.31	0.398
1692.32	0.263
1701.32	0.0569
1710.33	0.066
1719.34	0.0876
1728.34	0.2162
1737.35	0.4674
1746.36	0.5383
1755.36	0.6409
1764.37	0.7066
1773.38	0.7509
1782.38	0.8184
1791.39	0.8507
1800.39	0.8848
1809.4	0.9094
1818.41	0.9186
1827.41	0.9268
1836.42	0.9425
1845.43	0.9559
1854.43	0.9663
1863.44	0.9753
1872.45	0.979
1881.45	0.9681
1890.46	0.9616
1899.47	0.9473
1908.47	0.9501
1917.48	0.9886
1926.49	0.9913
1935.49	0.9926
1944.5	0.9935
1953.51	0.9938
1962.51	0.9935
1971.52	0.9932
1980.53	0.9928
1989.53	0.9923
1998.54	0.9918
2007.55	0.9916
2016.55	0.9915
2025.56	0.9914
2034.57	0.9912
2043.57	0.9911
2052.58	0.9889
2061.58	0.9865
2070.59	0.9821
2079.6	0.9819
2088.6	0.9854
2097.61	0.982
2106.62	0.9755
2115.62	0.9696
2124.63	0.9668
2133.64	0.9693
2142.64	0.9721
2151.65	0.9746
2160.66	0.977
2169.66	0.9786
2178.67	0.9761
2187.68	0.9708
2196.68	0.9622
2205.69	0.9542
2214.7	0.9502
2223.7	0.9505
2232.71	0.951
2241.72	0.9511
2250.72	0.95
2259.73	0.9459
2268.74	0.941
2277.74	0.9358
2286.75	0.9311
2295.76	0.9282
2304.76	0.9257
2313.77	0.924
2322.77	0.923
2331.78	0.9258
2340.79	0.9295
2349.79	0.9249
2358.8	0.915
2367.81	0.9142
2376.81	0.9211
2385.82	0.9274
2394.83	0.9263
2403.83	0.9224
2412.84	0.9176
2421.85	0.9134
2430.85	0.9104
2439.86	0.9108
2448.87	0.9125
2457.87	0.9157
2466.88	0.9208
2475.89	0.9304
2484.89	0.9334
2493.9	0.9107
2502.91	0.9078
2511.91	0.9088
2520.92	0.9076
2529.93	0.8974
2538.93	0.889
2547.94	0.8913
2556.95	0.8953
2565.95	0.8945
2574.96	0.8897
2583.97	0.8819
2592.97	0.8765
2601.98	0.8757
2610.98	0.8764
2619.99	0.8774
2629	0.8784
2638	0.8798
2647.01	0.8812
2656.02	0.8823
2665.02	0.8836
2674.03	0.887
2683.04	0.8853
2692.04	0.8814
2701.05	0.8763
2710.06	0.8736
2719.06	0.8729
2728.07	0.8732
2737.08	0.873
2746.08	0.8723
2755.09	0.8708
2764.1	0.8686
2773.1	0.8643
2782.11	0.86
2791.12	0.8547
2800.12	0.8491
2809.13	0.8427
2818.14	0.837
2827.14	0.8328
2836.15	0.829
2845.16	0.8272
2854.16	0.8274
2863.17	0.8294
2872.17	0.8305
2881.18	0.8278
2890.19	0.8229
2899.19	0.8161
2908.2	0.8069
2917.21	0.7846
2926.21	0.7689
2935.22	0.7628
2944.23	0.762
2953.23	0.7703
2962.24	0.7866
2971.25	0.8031
2980.25	0.7992
2989.26	0.7883
2998.27	0.7863
3007.27	0.7887
3016.28	0.7909
3025.29	0.792
3034.29	0.7862
3043.3	0.7786
3052.31	0.776
3061.31	0.7766
3070.32	0.7778
3079.33	0.7772
3088.33	0.7647
3097.34	0.7643
3106.35	0.7709
3115.35	0.7699
3124.36	0.7699
3133.36	0.7745
3142.37	0.7743
3151.38	0.7764
3160.38	0.7777
3169.39	0.7771
3178.4	0.7741
3187.4	0.7679
3196.41	0.7672
3205.42	0.7671
3214.42	0.7555
3223.43	0.7529
3232.44	0.7487
3241.44	0.7419
3250.45	0.7344
3259.46	0.7265
3268.46	0.716
3277.47	0.7028
3286.48	0.6919
3295.48	0.6766
3304.49	0.6535
3313.5	0.6157
3322.5	0.5437
3331.51	0.4537
3340.52	0.362
3349.52	0.2677
3358.53	0.1828
3367.54	0.1763
3376.54	0.5187
3385.55	0.6832
3394.55	0.7396
3403.56	0.7361
3412.57	0.7351
3421.57	0.7385
3430.58	0.7474
3439.59	0.7593
3448.59	0.7628
3457.6	0.764
3466.61	0.7654
3475.61	0.7672
3484.62	0.7705
3493.63	0.7771
3502.63	0.7788
3511.64	0.7799
3520.65	0.7806
3529.65	0.7813
3538.66	0.7819
3547.67	0.7835
3556.67	0.7852
3565.68	0.7867
3574.69	0.788
3583.69	0.7892
3592.7	0.7905
3601.71	0.8038
3610.71	0.8086
3619.72	0.8138
3628.73	0.8187
3637.73	0.8203
3646.74	0.8207
3655.75	0.821
3664.75	0.8212
3673.76	0.8196
3682.76	0.8125
3691.77	0.8202
3700.78	0.8214
3709.78	0.8216
3718.79	0.8215
3727.8	0.8211
3736.8	0.8203
3745.81	0.8199
3754.82	0.82
3763.82	0.8201
3772.83	0.8197
3781.84	0.8189
3790.84	0.818
3799.85	0.8156
3808.86	0.8132
3817.86	0.8103
3826.87	0.8061
3835.88	0.8015
3844.88	0.8002
3853.89	0.8002
3862.9	0.7989
3871.9	0.7964
3880.91	0.7945
3889.92	0.7931
3898.92	0.7916
3907.93	0.7911
3916.94	0.7917
3925.94	0.7907
3934.95	0.7887
3943.95	0.7889
3952.96	0.7836
3961.97	0.778
3970.97	0.777
3979.98	0.7766
3988.99	0.7769
3997.99	0.7775
