Infrared Spectrum: Urea), 1,1'-p-phenylenebis-(3-methyl-
Formula: C10 H14 N4 O2
CAS: 94628-91-8
State: SOLID (1 mg / 650 mg KBr DISC)
Class: COBLENTZ III
Instrument: PERKIN-ELMER 221 (GRATING)
Instrument parameters: FILTER AT 2490, 980 CM^-^1. GRATING 4000-1428 CM^-^1, NaCl PRISM 1428-650 CM^-^1
Sampling: TRANSMISSION
Resolution: 2
Origin: SOUTHERN RESEARCH INSTITUTE
1/CM	TRANSMITTANCE
657.432	0.5174
666.455	0.5261
675.478	0.5597
684.501	0.6153
693.524	0.6815
702.547	0.7154
711.57	0.724
720.593	0.7781
729.616	0.8229
738.639	0.8315
747.662	0.8278
756.686	0.7928
765.709	0.8558
774.732	0.8858
783.755	0.8812
792.778	0.8647
801.801	0.7034
810.824	0.553
819.847	0.8735
828.87	0.8757
837.893	0.8524
846.916	0.7255
855.939	0.818
864.962	0.9
873.985	0.9027
883.008	0.9019
892.031	0.901
901.054	0.8988
910.077	0.8962
919.1	0.8926
928.123	0.8876
937.146	0.8817
946.169	0.8722
955.193	0.863
964.216	0.8582
973.239	0.8801
982.262	0.8301
991.285	0.8255
1000.31	0.7789
1009.33	0.7406
1018.35	0.8125
1027.38	0.7994
1036.4	0.7911
1045.42	0.7839
1054.45	0.7752
1063.47	0.7659
1072.49	0.7549
1081.52	0.7409
1090.54	0.7078
1099.56	0.6733
1108.58	0.7241
1117.61	0.7022
1126.63	0.6895
1135.65	0.6872
1144.68	0.6648
1153.7	0.6397
1162.72	0.6388
1171.75	0.6437
1180.77	0.6313
1189.79	0.6047
1198.81	0.5589
1207.84	0.4986
1216.86	0.3928
1225.88	0.3572
1234.91	0.5485
1243.93	0.6367
1252.95	0.6089
1261.98	0.5711
1271	0.6436
1280.02	0.5295
1289.05	0.3769
1298.07	0.535
1307.09	0.6865
1316.11	0.7406
1325.14	0.7474
1334.16	0.7397
1343.18	0.7304
1352.21	0.7322
1361.23	0.7384
1370.25	0.7244
1379.28	0.6652
1388.3	0.5004
1397.32	0.4659
1406.34	0.6434
1415.37	0.6626
1424.39	0.7135
1433.41	0.7256
1442.44	0.7091
1451.46	0.6784
1460.48	0.662
1469.51	0.6478
1478.53	0.6242
1487.55	0.5756
1496.58	0.4814
1505.6	0.3531
1514.62	0.4227
1523.64	0.3227
1532.67	0.2532
1541.69	0.3629
1550.71	0.3341
1559.74	0.2595
1568.76	0.1869
1577.78	0.1653
1586.81	0.2079
1595.83	0.2788
1604.85	0.2893
1613.87	0.2745
1622.9	0.209
1631.92	0.1428
1640.94	0.1348
1649.97	0.2549
1658.99	0.3885
1668.01	0.4579
1677.04	0.5398
1686.06	0.6054
1695.08	0.6586
1704.11	0.709
1713.13	0.7465
1722.15	0.7762
1731.17	0.8056
1740.2	0.8252
1749.22	0.8424
1758.24	0.8566
1767.27	0.8676
1776.29	0.8753
1785.31	0.8832
1794.34	0.893
1803.36	0.8995
1812.38	0.906
1821.4	0.913
1830.43	0.918
1839.45	0.9206
1848.47	0.9228
1857.5	0.9248
1866.52	0.925
1875.54	0.9241
1884.57	0.92
1893.59	0.9122
1902.61	0.9181
1911.64	0.9266
1920.66	0.9276
1929.68	0.9282
1938.7	0.9284
1947.73	0.9287
1956.75	0.9282
1965.77	0.9273
1974.8	0.9265
1983.82	0.9257
1992.84	0.9249
2001.87	0.9241
2010.89	0.9233
2019.91	0.9224
2028.93	0.9213
2037.96	0.9203
2046.98	0.9192
2056	0.9179
2065.03	0.9166
2074.05	0.9152
2083.07	0.9138
2092.1	0.9126
2101.12	0.9119
2110.14	0.9111
2119.17	0.9103
2128.19	0.9101
2137.21	0.9098
2146.23	0.9096
2155.26	0.909
2164.28	0.9082
2173.3	0.9074
2182.33	0.9066
2191.35	0.9053
2200.37	0.9039
2209.4	0.9025
2218.42	0.9011
2227.44	0.9
2236.47	0.8989
2245.49	0.8978
2254.51	0.8969
2263.53	0.8962
2272.56	0.8954
2281.58	0.8947
2290.6	0.894
2299.63	0.8932
2308.65	0.8925
2317.67	0.8917
2326.7	0.8904
2335.72	0.8888
2344.74	0.8873
2353.76	0.8857
2362.79	0.8842
2371.81	0.8827
2380.83	0.8813
2389.86	0.8801
2398.88	0.8787
2407.9	0.8778
2416.93	0.8771
2425.95	0.8764
2434.97	0.876
2444	0.8758
2453.02	0.8757
2462.04	0.8752
2471.06	0.8744
2480.09	0.8579
2489.11	0.8495
2498.13	0.8673
2507.16	0.8648
2516.18	0.8628
2525.2	0.8603
2534.23	0.8587
2543.25	0.8571
2552.27	0.8558
2561.29	0.8551
2570.32	0.8544
2579.34	0.8538
2588.36	0.8539
2597.39	0.8534
2606.41	0.8473
2615.43	0.8424
2624.46	0.8398
2633.48	0.8383
2642.5	0.8373
2651.53	0.8372
2660.55	0.8367
2669.57	0.8357
2678.59	0.8337
2687.62	0.8313
2696.64	0.8289
2705.66	0.8267
2714.69	0.8235
2723.71	0.8192
2732.73	0.8156
2741.76	0.8147
2750.78	0.8128
2759.8	0.8076
2768.82	0.7994
2777.85	0.7903
2786.87	0.7807
2795.89	0.7608
2804.92	0.7426
2813.94	0.7511
2822.96	0.7568
2831.99	0.7554
2841.01	0.7509
2850.03	0.7441
2859.06	0.734
2868.08	0.7167
2877.1	0.704
2886.12	0.7044
2895.15	0.706
2904.17	0.706
2913.19	0.7008
2922.22	0.6943
2931.24	0.6882
2940.26	0.6895
2949.29	0.6993
2958.31	0.7063
2967.33	0.7086
2976.35	0.7084
2985.38	0.7087
2994.4	0.7104
3003.42	0.7155
3012.45	0.7195
3021.47	0.7199
3030.49	0.7151
3039.52	0.7096
3048.54	0.7071
3057.56	0.7062
3066.59	0.705
3075.61	0.6987
3084.63	0.6906
3093.65	0.6801
3102.68	0.663
3111.7	0.6489
3120.72	0.6439
3129.75	0.6491
3138.77	0.657
3147.79	0.6645
3156.82	0.6646
3165.84	0.6606
3174.86	0.6539
3183.88	0.645
3192.91	0.6339
3201.93	0.6181
3210.95	0.6011
3219.98	0.5834
3229	0.5646
3238.02	0.5455
3247.05	0.5255
3256.07	0.5034
3265.09	0.4788
3274.12	0.4472
3283.14	0.4175
3292.16	0.3857
3301.18	0.3461
3310.21	0.2771
3319.23	0.2218
3328.25	0.2079
3337.28	0.2103
3346.3	0.2552
3355.32	0.3242
3364.35	0.3917
3373.37	0.4511
3382.39	0.4934
3391.41	0.535
3400.44	0.5775
3409.46	0.6092
3418.48	0.6343
3427.51	0.6635
3436.53	0.6877
3445.55	0.7065
3454.58	0.721
3463.6	0.732
3472.62	0.74
3481.65	0.7469
3490.67	0.7536
3499.69	0.7602
3508.71	0.7654
3517.74	0.7705
3526.76	0.7747
3535.78	0.7777
3544.81	0.7814
3553.83	0.7866
3562.85	0.7921
3571.88	0.7988
3580.9	0.8055
3589.92	0.813
3598.95	0.8204
3607.97	0.8265
3616.99	0.8298
3626.01	0.8331
3635.04	0.8367
3644.06	0.841
3653.08	0.8425
3662.11	0.8435
3671.13	0.8436
3680.15	0.8437
3689.18	0.844
3698.2	0.8445
3707.22	0.845
3716.24	0.8453
3725.27	0.8454
3734.29	0.8456
3743.31	0.8455
3752.34	0.845
3761.36	0.8445
3770.38	0.8439
3779.41	0.8427
3788.43	0.8415
3797.45	0.8395
3806.48	0.8376
3815.5	0.8363
3824.52	0.8349
3833.54	0.8331
3842.57	0.8313
3851.59	0.8307
3860.61	0.8305
3869.64	0.8303
3878.66	0.8309
3887.68	0.8315
3896.71	0.8313
3905.73	0.8307
3914.75	0.8301
3923.77	0.8297
3932.8	0.8293
3941.82	0.8287
3950.84	0.828
3959.87	0.8274
3968.89	0.8269
3977.91	0.8262
3986.94	0.8253
3995.96	0.8253
4004.98	0.8261
