Infrared Spectrum: Pyrrolidine, 1-(2,3-dihydro-4-pheynl-1(4H)-benzopyran-4-carbonyl)-,
Formula: C20 H21 N O2
CAS: 94684-96-5
State: SOLUTION 7% (CS2 FOR 7.5-15 microns, AND CCl4 FOR 2.5-7.5 microns)
Class: COBLENTZ III
Instrument: PERKIN-ELMER 21 (GRATING)
Instrument parameters: FILTER AT ABOUT 10 MICRONS
Path length: 0.01 CM
Resolution: 2
Origin: ABBOTT LABORATORIES
1/CM	TRANSMITTANCE
667	0.9246
676	0.9339
685	0.9103
694	0.6256
703	0.3982
712	0.7918
721	0.823
730	0.865
739	0.7297
748	0.2709
757	0.2037
766	0.7608
775	0.8926
784	0.8741
793	0.8129
802	0.8943
811	0.8898
820	0.8936
829	0.8917
838	0.8623
847	0.8146
856	0.8488
865	0.8292
874	0.8298
883	0.8979
892	0.8894
901	0.8526
910	0.7453
919	0.6957
928	0.8416
937	0.8736
946	0.8828
955	0.8851
964	0.8603
973	0.878
982	0.9065
991	0.9202
1000	0.8791
1009	0.8736
1018	0.841
1027	0.6614
1036	0.5704
1045	0.5178
1054	0.6375
1063	0.7232
1072	0.7587
1081	0.7213
1090	0.8098
1099	0.8397
1108	0.742
1117	0.6059
1126	0.8214
1135	0.8519
1144	0.7517
1153	0.6866
1162	0.693
1171	0.6776
1180	0.551
1189	0.6912
1198	0.7693
1207	0.7146
1216	0.428
1225	0.1241
1234	0.5567
1243	0.5352
1252	0.5122
1261	0.7047
1270	0.6702
1279	0.537
1288	0.6014
1297	0.5332
1306	0.6922
1315	0.7414
1324	0.7154
1333	0.6556
1342	0.7362
1351	0.7289
1360	0.5931
1369	0.4183
1378	0.2612
1387	0.2217
1396	0.3124
1405	0.4217
1414	0.5967
1423	0.6587
1432	0.5839
1441	0.4183
1450	0.6149
1459	0.6925
1468	0.6702
1477	0.5474
1486	0.2674
1495	0.6916
1504	0.8593
1513	0.8937
1522	0.9138
1531	0.9223
1540	0.9199
1549	0.9015
1558	0.87
1567	0.7838
1576	0.5802
1585	0.6939
1594	0.6024
1603	0.4583
1612	0.3481
1621	0.1972
1630	0.0969
1639	0.1214
1648	0.5243
1657	0.6781
1666	0.8028
1675	0.8466
1684	0.8653
1693	0.8749
1702	0.8821
1711	0.8931
1720	0.8948
1729	0.8955
1738	0.8959
1747	0.8959
1756	0.8958
1765	0.8957
1774	0.8944
1783	0.893
1792	0.8914
1801	0.891
1810	0.8931
1819	0.9035
1828	0.9077
1837	0.9079
1846	0.9063
1855	0.9024
1864	0.8948
1873	0.8921
1882	0.8911
1891	0.8911
1900	0.8926
1909	0.8947
1918	0.8941
1927	0.8926
1936	0.8935
1945	0.8968
1954	0.9025
1963	0.911
1972	0.914
1981	0.9147
1990	0.9148
1999	0.9143
2008	0.9136
2017	0.9131
2026	0.9129
2035	0.9127
2044	0.9126
2053	0.9125
2062	0.9124
2071	0.9124
2080	0.9126
2089	0.9127
2098	0.9129
2107	0.9133
2116	0.9142
2125	0.915
2134	0.9157
2143	0.9163
2152	0.9169
2161	0.9166
2170	0.9153
2179	0.9139
2188	0.913
2197	0.9132
2206	0.9134
2215	0.9138
2224	0.9141
2233	0.9143
2242	0.9144
2251	0.9144
2260	0.9144
2269	0.9145
2278	0.9145
2287	0.9146
2296	0.9146
2305	0.915
2314	0.9154
2323	0.9158
2332	0.9163
2341	0.9166
2350	0.9166
2359	0.9167
2368	0.9166
2377	0.9158
2386	0.9151
2395	0.9143
2404	0.9139
2413	0.9136
2422	0.9133
2431	0.9132
2440	0.9131
2449	0.913
2458	0.9128
2467	0.9127
2476	0.9125
2485	0.9123
2494	0.9121
2503	0.9118
2512	0.9116
2521	0.9114
2530	0.9111
2539	0.9108
2548	0.9106
2557	0.9103
2566	0.9101
2575	0.9099
2584	0.9097
2593	0.9095
2602	0.9093
2611	0.9091
2620	0.9091
2629	0.9094
2638	0.9097
2647	0.9105
2656	0.9119
2665	0.9212
2674	0.9162
2683	0.9062
2692	0.9032
2701	0.9004
2710	0.8978
2719	0.8958
2728	0.894
2737	0.8923
2746	0.8906
2755	0.8889
2764	0.8871
2773	0.8837
2782	0.8762
2791	0.867
2800	0.8542
2809	0.8381
2818	0.826
2827	0.8066
2836	0.765
2845	0.6971
2854	0.63
2863	0.615
2872	0.6348
2881	0.6747
2890	0.7129
2899	0.7006
2908	0.6644
2917	0.6284
2926	0.5926
2935	0.5571
2944	0.5239
2953	0.5259
2962	0.5927
2971	0.6709
2980	0.7479
2989	0.7675
2998	0.7705
3007	0.7718
3016	0.7724
3025	0.773
3034	0.7736
3043	0.7749
3052	0.7878
3061	0.8149
3070	0.8419
3079	0.8687
3088	0.8871
3097	0.8978
3106	0.9055
3115	0.9074
3124	0.9086
3133	0.9096
3142	0.9102
3151	0.9103
3160	0.9104
3169	0.9105
3178	0.9106
3187	0.9105
3196	0.9104
3205	0.9103
3214	0.9102
3223	0.91
3232	0.9099
3241	0.9098
3250	0.9096
3259	0.9093
3268	0.9089
3277	0.9086
3286	0.9084
3295	0.9079
3304	0.9072
3313	0.9066
3322	0.9059
3331	0.9052
3340	0.9042
3349	0.9031
3358	0.9014
3367	0.8997
3376	0.8981
3385	0.8967
3394	0.8954
3403	0.8947
3412	0.8945
3421	0.8943
3430	0.894
3439	0.894
3448	0.8942
3457	0.8946
3466	0.8951
3475	0.896
3484	0.897
3493	0.8979
3502	0.8985
3511	0.8992
3520	0.8998
3529	0.8999
3538	0.9001
3547	0.9002
3556	0.9002
3565	0.9001
3574	0.9001
3583	0.9
3592	0.8999
3601	0.8996
3610	0.8993
3619	0.8989
3628	0.8985
3637	0.8983
3646	0.8981
3655	0.8978
3664	0.8977
3673	0.8975
3682	0.8973
3691	0.8972
3700	0.897
3709	0.897
3718	0.8969
3727	0.8967
3736	0.8967
3745	0.8965
3754	0.8964
3763	0.8964
3772	0.8964
3781	0.8966
3790	0.8968
3799	0.8971
3808	0.8973
3817	0.8976
3826	0.8979
3835	0.8983
3844	0.8987
3853	0.8992
3862	0.8994
3871	0.8995
3880	0.8996
3889	0.8996
3898	0.8992
3907	0.8987
3916	0.8981
3925	0.8973
3934	0.8967
3943	0.8962
3952	0.8956
3961	0.8951
3970	0.8945
3979	0.894
3988	0.8934
3997	0.8931
