Infrared Spectrum: BIS(3-INDOLYLETHYL)AMINE
Formula: C20 H21 N3
CAS: 94685-68-4
State: SOLUTION (7% IN CHCl3)
Class: COBLENTZ
Instrument: PERKIN-ELMER
Sampling: TRANSMISSION
Path length: 0.010 CM
Resolution: 4
Origin: ABBOTT LABORATORIES - WASHBURN
MICROMETERS	TRANSMITTANCE
2.018	0.898
2.05335	0.897
2.0887	0.897
2.12405	0.9
2.1594	0.9
2.19475	0.9
2.2301	0.902
2.26545	0.9003
2.3008	0.9017
2.33615	0.9106
2.3715	0.9114
2.40685	0.8985
2.44221	0.8983
2.47756	0.897
2.51291	0.895
2.54826	0.893
2.58361	0.898
2.61896	0.8996
2.65431	0.906
2.68966	0.909
2.72501	0.9273
2.76036	0.9137
2.79571	0.8833
2.83106	0.627
2.86641	0.641
2.90176	0.7189
2.93711	0.7769
2.97246	0.7766
3.00781	0.764
3.04316	0.767
3.07851	0.7587
3.11386	0.744
3.14921	0.7432
3.18456	0.744
3.21992	0.7197
3.25527	0.7183
3.29062	0.6757
3.32597	0.6826
3.36132	0.5717
3.39667	0.5108
3.43202	0.5565
3.46737	0.5799
3.50272	0.5957
3.53807	0.7017
3.57342	0.762
3.60877	0.7831
3.64412	0.7966
3.67947	0.8091
3.71482	0.822
3.75017	0.8301
3.78552	0.8425
3.82087	0.85
3.85622	0.8515
3.89157	0.852
3.92692	0.851
3.96227	0.8368
3.99763	0.8387
4.03298	0.854
4.06833	0.871
4.10368	0.8833
4.13903	0.8889
4.17438	0.893
4.20973	0.8892
4.24508	0.884
4.28043	0.882
4.31578	0.882
4.35113	0.8764
4.38648	0.8804
4.42183	0.875
4.45718	0.875
4.49253	0.872
4.52788	0.8733
4.56323	0.872
4.59858	0.875
4.63393	0.8747
4.66928	0.8735
4.70463	0.874
4.73998	0.874
4.77533	0.872
4.81069	0.874
4.84604	0.874
4.88139	0.874
4.91674	0.874
4.95209	0.8715
4.98744	0.872
5.02279	0.875
5.05814	0.875
5.09349	0.874
5.12884	0.8671
5.16419	0.8464
5.19954	0.8498
5.23489	0.856
5.27024	0.8395
5.30559	0.8494
5.34094	0.856
5.37629	0.852
5.41164	0.8587
5.44699	0.8595
5.48234	0.854
5.51769	0.847
5.55304	0.8564
5.5884	0.8518
5.62375	0.843
5.6591	0.8481
5.69445	0.8545
5.7298	0.8594
5.76515	0.8588
5.8005	0.858
5.83585	0.852
5.8712	0.8504
5.90655	0.8372
5.9419	0.8321
5.97725	0.8215
6.0126	0.826
6.04795	0.8276
6.0833	0.8178
6.11865	0.7601
6.154	0.74
6.18935	0.7745
6.2247	0.7808
6.26005	0.776
6.2954	0.7817
6.33075	0.8035
6.36611	0.82
6.40146	0.808
6.43681	0.8218
6.47216	0.8517
6.50751	0.8724
6.54286	0.879
6.57821	0.8764
6.61356	0.8574
6.64891	0.8266
6.68426	0.7688
6.71961	0.7554
6.75496	0.7483
6.79031	0.6583
6.82566	0.4279
6.86101	0.4233
6.89636	0.5507
6.93171	0.5993
6.96706	0.6865
7.00241	0.6823
7.03776	0.5822
7.07311	0.7537
7.10846	0.8209
7.14381	0.8365
7.17917	0.8396
7.21452	0.8121
7.24987	0.79
7.28522	0.7546
7.32057	0.6644
7.35592	0.5713
7.39127	0.5691
7.42662	0.5678
7.46197	0.5437
7.49732	0.6352
7.53267	0.7251
7.56802	0.7825
7.60337	0.8018
7.63872	0.8038
7.67407	0.7936
7.70942	0.773
7.74477	0.7732
7.78012	0.7861
7.81547	0.792
7.85082	0.792
7.88617	0.792
7.92152	0.79
7.95688	0.7723
7.99223	0.7579
8.02758	0.7847
8.06293	0.8017
8.09828	0.8095
8.13363	0.8056
8.16898	0.801
8.20433	0.801
8.23968	0.801
8.27503	0.805
8.31038	0.8438
8.34573	0.8765
8.38108	0.8892
8.41643	0.8697
8.45178	0.8557
8.48713	0.8416
8.52248	0.8305
8.55783	0.828
8.59318	0.831
8.62853	0.8288
8.66388	0.8047
8.69923	0.787
8.73459	0.7996
8.76994	0.7985
8.80529	0.7641
8.84064	0.7018
8.87599	0.663
8.91134	0.6296
8.94669	0.5859
8.98204	0.5795
9.01739	0.5998
9.05274	0.6204
9.08809	0.6112
9.12344	0.5232
9.15879	0.4477
9.19414	0.5591
9.22949	0.6325
9.26484	0.6472
9.30019	0.6895
9.33554	0.7363
9.37089	0.7743
9.40624	0.8019
9.44159	0.815
9.47694	0.8048
9.51229	0.8015
9.54765	0.8314
9.583	0.8478
9.61835	0.858
9.6537	0.8616
9.68905	0.8645
9.7244	0.85
9.75975	0.8276
9.7951	0.8011
9.83045	0.7424
9.8658	0.6155
9.90115	0.6878
9.9365	0.7507
9.97185	0.7765
10.0072	0.7875
10.0426	0.7944
10.0779	0.797
10.1133	0.799
10.1486	0.796
10.184	0.796
10.2193	0.7962
10.2547	0.7968
10.29	0.7916
10.3254	0.7905
10.3607	0.7876
10.3961	0.7935
10.4314	0.7865
10.4668	0.778
10.5021	0.769
10.5375	0.7642
10.5728	0.769
10.6082	0.7765
10.6435	0.7803
10.6789	0.7835
10.7142	0.783
10.7496	0.7648
10.7849	0.7566
10.8203	0.7488
10.8556	0.744
10.891	0.738
10.9263	0.734
10.9617	0.734
10.997	0.7386
11.0324	0.742
11.0677	0.741
11.1031	0.742
11.1384	0.7445
11.1738	0.7484
11.2091	0.757
11.2445	0.7584
11.2798	0.7657
11.3152	0.78
11.3505	0.7875
11.3859	0.7898
11.4212	0.7775
11.4566	0.7559
11.4919	0.7381
11.5273	0.7224
11.5626	0.7174
11.598	0.714
11.6333	0.7125
11.6687	0.716
11.704	0.7214
11.7394	0.7187
11.7747	0.716
11.8101	0.712
11.8454	0.71
11.8808	0.71
11.9161	0.714
11.9515	0.716
11.9868	0.7193
12.0222	0.723
12.0575	0.7219
12.0929	0.7195
12.1282	0.719
12.1636	0.718
12.1989	0.716
12.2343	0.71
12.2696	0.705
12.305	0.6958
12.3403	0.691
12.3757	0.693
12.411	0.696
12.4464	0.702
12.4817	0.7152
12.5171	0.7291
12.5524	0.7425
12.5878	0.7514
12.6231	0.7604
12.6585	0.7642
12.6938	0.7744
12.7292	0.78
12.7645	0.7803
12.7999	0.783
12.8352	0.787
12.8706	0.7892
12.9059	0.787
12.9413	0.7876
12.9766	0.796
13.012	0.796
13.0473	0.796
13.0827	0.796
13.118	0.796
13.1534	0.796
13.1887	0.796
13.2241	0.794
13.2594	0.796
13.2948	0.7956
13.3301	0.796
13.3655	0.7976
13.4008	0.802
13.4362	0.806
13.4715	0.8024
13.5069	0.803
13.5422	0.808
13.5776	0.804
13.6129	0.7994
13.6483	0.8033
13.6836	0.804
13.719	0.799
13.7543	0.8045
13.7897	0.808
13.825	0.81
13.8604	0.8142
13.8958	0.8218
13.9311	0.828
13.9665	0.8335
14.0018	0.8384
14.0372	0.8463
14.0725	0.858
14.1079	0.8673
14.1432	0.8756
14.1786	0.8871
14.2139	0.8908
14.2493	0.89
14.2846	0.891
14.32	0.891
14.3553	0.89
14.3907	0.8903
14.426	0.89
14.4614	0.8895
14.4967	0.8856
14.5321	0.881
14.5674	0.881
14.6028	0.8936
14.6381	0.895
14.6735	0.898
14.7088	0.9067
14.7442	0.914
14.7795	0.9236
14.8149	0.9396
14.8502	0.9466
14.8856	0.95
14.9209	0.9495
14.9563	0.9458
14.9916	0.943
15.027	0.9356
15.0623	0.9188
15.0977	0.8805
15.133	0.7954
15.1684	0.74
15.2037	0.728
15.2391	0.7346
15.2744	0.7668
15.3098	0.7932
15.3451	0.8093
15.3805	0.8175
15.4158	0.828
