Infrared Spectrum: DIPHENYLACETALDEHYDE
Formula: C14 H12 O
CAS: 947-91-1
State: SOLUTION (10% CCl4 FOR 3800-1330, 10% CS2 FOR 1330-400 CM^-^1) VS SOLVENT
Class: COBLENTZ III
Instrument: DOW KBr FOREPRISM-GRATING
Instrument parameters: BLAZED AT 3.5, 12.0, 20.0 MICRON AND CHANGED AT 5.0, 7.5, 14.9 MICRON
Sampling: TRANSMISSION
Path length: 0.011 CM, 0.010 CM
Resolution: 2
Origin: DOW CHEMICAL COMPANY
1/CM	TRANSMITTANCE
389.291	1.035
397.974	1.035
406.657	1.034
415.34	1.029
424.023	1.025
432.706	1.025
441.389	1.027
450.073	1.021
458.756	1.006
467.439	0.97
476.122	0.956
484.805	0.922
493.488	0.823
502.171	0.959
510.854	0.896
519.537	0.58
528.22	0.87
536.903	0.946
545.586	0.885
554.27	0.593
562.953	0.877
571.636	0.942
580.319	0.979
589.002	0.963
597.685	0.873
606.368	0.912
615.051	0.956
623.734	0.956
632.417	0.982
641.1	0.98
649.783	0.919
658.466	0.978
667.15	0.915
675.833	0.861
684.516	0.761
693.199	0.157
701.882	0.002
710.565	0.285
719.248	0.666
727.931	0.647
736.614	0.493
745.297	0.394
753.98	0.37
762.663	0.586
771.347	0.776
780.03	0.914
788.713	0.98
797.396	0.985
806.079	0.978
814.762	0.982
823.445	0.98
832.128	0.968
840.811	0.929
849.494	0.974
858.177	0.986
866.86	0.986
875.544	0.979
884.227	0.983
892.91	0.978
901.593	0.929
910.276	0.877
918.959	0.895
927.642	0.931
936.325	0.895
945.008	0.859
953.691	0.877
962.374	0.896
971.057	0.895
979.74	0.876
988.424	0.873
997.107	0.813
1005.79	0.761
1014.47	0.757
1023.16	0.73
1031.84	0.496
1040.52	0.665
1049.21	0.812
1057.89	0.855
1066.57	0.843
1075.25	0.67
1083.94	0.5121
1092.62	0.726
1101.3	0.8
1109.99	0.765
1118.67	0.844
1127.35	0.878
1136.04	0.872
1144.72	0.861
1153.4	0.823
1162.09	0.82
1170.77	0.808
1179.45	0.756
1188.13	0.755
1196.82	0.816
1205.5	0.865
1214.18	0.885
1222.87	0.882
1231.55	0.869
1240.23	0.862
1248.92	0.861
1257.6	0.858
1266.28	0.851
1274.97	0.761
1283.65	0.847
1292.33	0.874
1301.01	0.885
1309.7	0.873
1318.38	0.831
1327.06	0.889
1335.75	0.862
1344.43	0.895
1353.11	0.93
1361.8	0.934
1370.48	0.93
1379.16	0.893
1387.85	0.774
1396.53	0.873
1405.21	0.915
1413.89	0.922
1422.58	0.929
1431.26	0.919
1439.94	0.882
1448.63	0.6039
1457.31	0.3521
1465.99	0.881
1474.68	0.887
1483.36	0.863
1492.04	0.549
1500.73	0.1571
1509.41	0.851
1518.09	0.955
1526.77	0.967
1535.46	0.967
1544.14	0.983
1552.82	1.004
1561.51	0.991
1570.19	0.963
1578.87	0.895
1587.56	0.797
1596.24	0.7679
1604.92	0.5331
1613.61	0.868
1622.29	0.899
1630.97	0.859
1639.65	0.897
1648.34	0.911
1657.02	0.877
1665.7	0.73
1674.39	0.876
1683.07	0.887
1691.75	0.844
1700.44	0.831
1709.12	0.71
1717.8	0.4959
1726.49	0.031
1735.17	0.038
1743.85	0.3371
1752.53	0.702
1761.22	0.836
1769.9	0.88
1778.58	0.889
1787.27	0.906
1795.95	0.893
1804.63	0.857
1813.32	0.888
1822	0.912
1830.68	0.934
1839.37	0.951
1848.05	0.952
1856.73	0.949
1865.41	0.936
1874.1	0.892
1882.78	0.904
1891.46	0.908
1900.15	0.922
1908.83	0.949
1917.51	0.957
1926.2	0.957
1934.88	0.953
1943.56	0.926
1952.25	0.847
1960.93	0.9
1969.61	0.899
1978.29	0.944
1986.98	0.956
1995.66	0.955
2004.34	0.978
2013.03	0.978
2021.71	0.978
2030.39	0.976
2039.08	0.976
2047.76	0.975
2056.44	0.974
2065.13	0.971
2073.81	0.971
2082.49	0.972
2091.17	0.972
2099.86	0.972
2108.54	0.9755
2117.22	0.976
2125.91	0.976
2134.59	0.9755
2143.27	0.976
2151.96	0.977
2160.64	0.976
2169.32	0.975
2178.01	0.9745
2186.69	0.972
2195.37	0.973
2204.05	0.975
2212.74	0.975
2221.42	0.975
2230.1	0.975
2238.79	0.975
2247.47	0.975
2256.15	0.975
2264.84	0.975
2273.52	0.976
2282.2	0.978
2290.89	0.978
2299.57	0.978
2308.25	0.9825
2316.93	0.986
2325.62	0.9855
2334.3	0.9811
2342.98	0.971
2351.67	0.9729
2360.35	0.978
2369.03	0.976
2377.72	0.9756
2386.4	0.9731
2395.08	0.9706
2403.77	0.968
2412.45	0.968
2421.13	0.97
2429.81	0.9714
2438.5	0.972
2447.18	0.972
2455.86	0.972
2464.55	0.972
2473.23	0.972
2481.91	0.971
2490.6	0.97
2499.28	0.9691
2507.96	0.9704
2516.65	0.971
2525.33	0.9729
2534.01	0.974
2542.69	0.9731
2551.38	0.972
2560.06	0.9716
2568.74	0.97
2577.43	0.9661
2586.11	0.964
2594.79	0.964
2603.48	0.9658
2612.16	0.967
2620.84	0.9657
2629.53	0.9562
2638.21	0.955
2646.89	0.955
2655.58	0.9516
2664.26	0.9472
2672.94	0.9392
2681.62	0.9306
2690.31	0.9072
2698.99	0.857
2707.67	0.7296
2716.36	0.7141
2725.04	0.7605
2733.72	0.8024
2742.41	0.8749
2751.09	0.8982
2759.77	0.912
2768.46	0.912
2777.14	0.9054
2785.82	0.8874
2794.5	0.8268
2803.19	0.7483
2811.87	0.6196
2820.55	0.637
2829.24	0.7479
2837.92	0.828
2846.6	0.8538
2855.29	0.8624
2863.97	0.868
2872.65	0.872
2881.34	0.8774
2890.02	0.88
2898.7	0.8736
2907.38	0.8626
2916.07	0.858
2924.75	0.8728
2933.43	0.8918
2942.12	0.9075
2950.8	0.919
2959.48	0.9278
2968.17	0.931
2976.85	0.931
2985.53	0.9251
2994.22	0.9169
3002.9	0.8915
3011.58	0.8522
3020.26	0.8176
3028.95	0.6326
3037.63	0.4119
3046.31	0.685
3055	0.734
3063.68	0.5849
3072.36	0.4924
3081.05	0.7277
3089.73	0.6788
3098.41	0.7185
3107.1	0.8517
3115.78	0.862
3124.46	0.9517
3133.14	0.957
3141.83	0.956
3150.51	0.956
3159.19	0.955
3167.88	0.955
3176.56	0.9621
3185.24	0.964
3193.93	0.965
3202.61	0.965
3211.29	0.965
3219.98	0.968
3228.66	0.968
3237.34	0.97
3246.02	0.97
3254.71	0.9669
3263.39	0.967
3272.07	0.967
3280.76	0.965
3289.44	0.965
3298.12	0.965
3306.81	0.9647
3315.49	0.964
3324.17	0.965
3332.86	0.965
3341.54	0.965
3350.22	0.964
3358.9	0.964
3367.59	0.963
3376.27	0.961
3384.95	0.9607
3393.64	0.96
3402.32	0.9577
3411	0.9563
3419.69	0.9543
3428.37	0.9427
3437.05	0.9094
3445.74	0.92
3454.42	0.9353
3463.1	0.949
3471.78	0.957
3480.47	0.961
3489.15	0.964
3497.83	0.964
3506.52	0.9624
3515.2	0.96
3523.88	0.9563
3532.57	0.9517
3541.25	0.9304
3549.93	0.9209
3558.62	0.9523
3567.3	0.964
3575.98	0.9726
3584.66	0.9823
3593.35	0.9787
3602.03	0.9774
3610.71	0.976
3619.4	0.976
3628.08	0.9823
3636.76	0.985
3645.45	0.983
3654.13	0.9787
3662.81	0.978
3671.5	0.9836
3680.18	0.985
3688.86	0.986
3697.54	0.986
3706.23	0.989
3714.91	0.99
3723.59	0.9903
3732.28	0.993
3740.96	0.995
3749.64	0.997
3758.33	0.997
3767.01	0.997
3775.69	0.995
3784.38	0.9937
3793.06	0.993
3801.74	0.993
