Infrared Spectrum: Phosfolan
Formula: C 7 H 14 N O 3 P S 2
CAS: 947-02-4
State: gas
Instrument: HP-GC/MS/IRD
Origin: NIST Mass Spectrometry Data Center
1/CM	ABSORBANCE
550	0.0404335
562	0.0299585
574	0.0276959
586	0.0206148
598	0.0075001
610	0.0019274
622	0.0005028
634	0.0001257
646	0
658	0.0002095
670	0.001257
682	0.00419
694	0.0036034
706	0.0045671
718	0.0085476
730	0.0182265
742	0.024302
754	0.0189388
766	0.0124862
778	0.0158382
790	0.0293719
802	0.0379195
814	0.0356569
826	0.0437436
838	0.0828363
850	0.130225
862	0.161776
874	0.0622215
886	0.0348608
898	0.0537158
910	0.0876967
922	0.0744144
934	0.090504
946	0.148787
958	0.165924
970	0.128465
982	0.077096
994	0.0489811
1006	0.0560622
1018	0.105001
1030	0.221483
1042	0.330423
1054	0.311862
1066	0.266945
1078	0.161525
1090	0.104289
1102	0.090923
1114	0.0569421
1126	0.0424028
1138	0.0398469
1150	0.0450006
1162	0.0352379
1174	0.0290786
1186	0.0206148
1198	0.0124024
1210	0.0097208
1222	0.0102655
1234	0.0141622
1246	0.0309641
1258	0.0685484
1270	0.0926828
1282	0.122599
1294	0.0815793
1306	0.0369558
1318	0.0181846
1330	0.0101398
1342	0.0077515
1354	0.00838
1366	0.0122767
1378	0.0150002
1390	0.0239249
1402	0.0222489
1414	0.0124024
1426	0.0141203
1438	0.0139946
1450	0.009637
1462	0.0082962
1474	0.0085057
1486	0.0091761
1498	0.0085476
1510	0.0086733
1522	0.0101817
1534	0.0144136
1546	0.0248886
1558	0.0517046
1570	0.121301
1582	0.30256
1594	0.414726
1606	0.259906
1618	0.15415
1630	0.0838419
1642	0.0465509
1654	0.0308384
1666	0.0252657
1678	0.0253495
1690	0.0250143
1702	0.0243858
1714	0.0237992
1726	0.0210338
1738	0.0187712
1750	0.0173047
1762	0.0131147
1774	0.0099303
1786	0.0091761
1798	0.0103912
1810	0.0122767
1822	0.0120253
1834	0.0083381
1846	0.0055727
1858	0.0045252
1870	0.0038129
1882	0.0029749
1894	0.0022626
1906	0.0015922
1918	0.0010475
1930	0.0007961
1942	0.0005447
1954	0.0003771
1966	0.0001676
1978	0.0001676
1990	0.0002095
2002	0.0002514
2014	0.0002514
2026	8.38e-05
2038	4.19e-05
2050	0
2062	0
2074	8.38e-05
2086	0.0002514
2098	0.0005028
2110	0.0005447
2122	0.0006704
2134	0.0007123
2146	0.000838
2158	0.0011732
2170	0.0016341
2182	0.0015503
2194	0.0009218
2206	0.0003771
2218	0.0002095
2230	8.38e-05
2242	8.38e-05
2254	0.0002095
2266	0.000419
2278	0.0003352
2290	0.0002095
2302	4.19e-05
2314	4.19e-05
2326	0.0001257
2338	0.0001676
2350	0.0001257
2362	4.19e-05
2374	8.38e-05
2386	0.0002095
2398	0.0002095
2410	0.0003771
2422	0.0007123
2434	0.0012151
2446	0.0016341
2458	0.0015922
2470	0.001257
2482	0.0009637
2494	0.0008799
2506	0.0006704
2518	0.0004609
2530	0.0002095
2542	0.0001676
2554	0.0002095
2566	8.38e-05
2578	8.38e-05
2590	8.38e-05
2602	4.19e-05
2614	0
2626	0
2638	0
2650	0
2662	0
2674	0
2686	0.0001257
2698	0.0002095
2710	0.0003771
2722	0.0007542
2734	0.0010894
2746	0.0010475
2758	0.001257
2770	0.0015503
2782	0.0017598
2794	0.0015503
2806	0.0018436
2818	0.0024721
2830	0.0036034
2842	0.0065783
2854	0.0090085
2866	0.0093437
2878	0.0143717
2890	0.0154611
2902	0.0200282
2914	0.0278216
2926	0.0379614
2938	0.0817888
2950	0.0491906
2962	0.0392603
2974	0.056984
2986	0.0731574
2998	0.0486459
3010	0.0272769
3022	0.0157963
3034	0.0090085
3046	0.0054889
3058	0.0036872
3070	0.0025978
3082	0.002095
3094	0.0018855
3106	0.0018436
3118	0.0020112
3130	0.0023883
3142	0.0032263
3154	0.0040643
3166	0.0039386
3178	0.0030168
3190	0.0023883
3202	0.002095
3214	0.0017179
3226	0.0014665
3238	0.0012151
3250	0.0009637
3262	0.0007542
3274	0.0007123
3286	0.0005866
3298	0.0003771
3310	0.000419
3322	0.0003352
3334	0.0003352
3346	0.0002933
3358	0.0002933
3370	0.0002514
3382	0.0002095
3394	0.0002933
3406	0.0002933
3418	0.0003352
3430	0.0005028
3442	0.0003771
3454	0.0002514
3466	0.0002095
3478	8.38e-05
3490	0.0001257
3502	8.38e-05
3514	0.0001257
3526	8.38e-05
3538	0.0001257
3550	0.0001676
3562	8.38e-05
3574	4.19e-05
3586	4.19e-05
3598	4.19e-05
3610	0.0001257
3622	0.0002514
3634	0.0001257
3646	0.0001676
3658	0.0002095
3670	0.0002095
3682	0.0002095
3694	0.0002933
3706	0.0002514
3718	0.0002933
3730	0.0002933
3742	0.0002933
3754	0.0003352
3766	0.0003771
3778	0.0005028
3790	0.0003352
3802	0.0003352
3814	0.0003771
3826	0.0003771
3838	0.000419
