Infrared Spectrum: DIPHENYL SILANEDIOL
Formula: C12 H12 O2 Si
CAS: 947-42-2
State: SOLID (MINERAL OIL MULL)
Class: COBLENTZ
Instrument: Not specified, most likely a prism, grating, or hybrid spectrometer.
Sampling: TRANSMISSION
Resolution: 4
Origin: WYANDOTTE CHEMICALS CORP., WYANDOTTE, MICHIGAN, USA
MICROMETERS	TRANSMITTANCE
2.02	0.308
2.06094	0.318
2.10188	0.335
2.14281	0.349
2.18375	0.354
2.22469	0.364
2.26563	0.376
2.30657	0.4
2.34751	0.412
2.38844	0.421
2.42938	0.443
2.47032	0.453
2.51126	0.476
2.5522	0.496
2.59313	0.511
2.63407	0.53
2.67501	0.547
2.71595	0.556
2.75689	0.57
2.79783	0.58
2.83876	0.587
2.8797	0.571
2.92064	0.522
2.96158	0.462
3.00252	0.345
3.04346	0.207
3.08439	0.123
3.12533	0.09
3.16627	0.094
3.20721	0.102
3.24815	0.118
3.28908	0.111
3.33002	0.087
3.37096	0.029
3.4119	0.027
3.45284	0.071
3.49378	0.097
3.53471	0.256
3.57565	0.616
3.61659	0.645
3.65753	0.662
3.69847	0.655
3.7394	0.666
3.78034	0.683
3.82128	0.693
3.86222	0.707
3.90316	0.715
3.9441	0.734
3.98503	0.743
4.02597	0.744
4.06691	0.761
4.10785	0.765
4.14879	0.767
4.18973	0.773
4.23066	0.775
4.2716	0.773
4.31254	0.772
4.35348	0.775
4.39442	0.787
4.43535	0.799
4.47629	0.791
4.51723	0.792
4.55817	0.794
4.59911	0.797
4.64005	0.799
4.68098	0.801
4.72192	0.808
4.76286	0.821
4.8038	0.821
4.84474	0.828
4.88567	0.833
4.92661	0.839
4.96755	0.849
5.00849	0.854
5.04943	0.859
5.09037	0.868
5.1313	0.851
5.17224	0.837
5.21318	0.885
5.25412	0.888
5.29506	0.856
5.336	0.828
5.37693	0.89
5.41787	0.909
5.45881	0.898
5.49975	0.875
5.54069	0.885
5.58162	0.912
5.62256	0.912
5.6635	0.886
5.70444	0.912
5.74538	0.916
5.78632	0.919
5.82725	0.921
5.86819	0.928
5.90913	0.938
5.95007	0.931
5.99101	0.917
6.03194	0.921
6.07288	0.934
6.11382	0.938
6.15476	0.921
6.1957	0.929
6.23664	0.854
6.27757	0.804
6.31851	0.905
6.35945	0.898
6.40039	0.921
6.44133	0.933
6.48227	0.936
6.5232	0.938
6.56414	0.934
6.60508	0.924
6.64602	0.917
6.68696	0.844
6.72789	0.753
6.76883	0.599
6.80977	0.357
6.85071	0.421
6.89165	0.535
6.93259	0.64
6.97352	0.32
7.01446	0.52
7.0554	0.821
7.09634	0.868
7.13728	0.871
7.17821	0.844
7.21915	0.695
7.26009	0.506
7.30103	0.688
7.34197	0.773
7.38291	0.832
7.42384	0.842
7.46478	0.833
7.50572	0.777
7.54666	0.835
7.5876	0.833
7.62854	0.803
7.66947	0.792
7.71041	0.871
7.75135	0.893
7.79229	0.907
7.83323	0.902
7.87416	0.863
7.9151	0.82
7.95604	0.875
7.99698	0.904
8.03792	0.91
8.07886	0.912
8.11979	0.914
8.16073	0.914
8.20167	0.914
8.24261	0.91
8.28355	0.902
8.32448	0.893
8.36542	0.866
8.40636	0.815
8.4473	0.779
8.48824	0.794
8.52918	0.804
8.57011	0.751
8.61105	0.681
8.65199	0.609
8.69293	0.57
8.73387	0.472
8.77481	0.354
8.81574	0.193
8.85668	0.102
8.89762	0.119
8.93856	0.099
8.9795	0.226
9.02043	0.335
9.06137	0.378
9.10231	0.404
9.14325	0.431
9.18419	0.467
9.22513	0.498
9.26606	0.508
9.307	0.517
9.34794	0.505
9.38888	0.51
9.42982	0.532
9.47075	0.529
9.51169	0.513
9.55263	0.494
9.59357	0.424
9.63451	0.277
9.67545	0.304
9.71638	0.376
9.75732	0.369
9.79826	0.282
9.8392	0.212
9.88014	0.205
9.92108	0.332
9.96201	0.494
10.003	0.53
10.0439	0.325
10.0848	0.351
10.1258	0.491
10.1667	0.585
10.2076	0.633
10.2486	0.647
10.2895	0.667
10.3305	0.695
10.3714	0.726
10.4123	0.746
10.4533	0.76
10.4942	0.768
10.5351	0.773
10.5761	0.777
10.617	0.784
10.658	0.782
10.6989	0.775
10.7398	0.755
10.7808	0.722
10.8217	0.679
10.8627	0.59
10.9036	0.494
10.9445	0.433
10.9855	0.325
11.0264	0.253
11.0673	0.231
11.1083	0.272
11.1492	0.357
11.1902	0.395
11.2311	0.369
11.272	0.306
11.313	0.236
11.3539	0.19
11.3949	0.176
11.4358	0.172
11.4767	0.195
11.5177	0.224
11.5586	0.26
11.5995	0.275
11.6405	0.285
11.6814	0.246
11.7224	0.205
11.7633	0.174
11.8042	0.172
11.8452	0.167
11.8861	0.145
11.927	0.113
11.968	0.078
12.0089	0.07
12.0499	0.09
12.0908	0.157
12.1317	0.236
12.1727	0.32
12.2136	0.402
12.2546	0.474
12.2955	0.53
12.3364	0.57
12.3774	0.609
12.4183	0.638
12.4592	0.657
12.5002	0.681
12.5411	0.698
12.5821	0.712
12.623	0.724
12.6639	0.727
12.7049	0.734
12.7458	0.736
12.7868	0.736
12.8277	0.738
12.8686	0.744
12.9096	0.739
12.9505	0.739
12.9914	0.734
13.0324	0.724
13.0733	0.707
13.1143	0.695
13.1552	0.693
13.1961	0.693
13.2371	0.678
13.278	0.652
13.3189	0.604
13.3599	0.527
13.4008	0.44
13.4418	0.345
13.4827	0.234
13.5236	0.174
13.5646	0.162
13.6055	0.21
13.6465	0.32
13.6874	0.366
13.7283	0.368
13.7693	0.327
13.8102	0.27
13.8511	0.214
13.8921	0.169
13.933	0.159
13.974	0.174
14.0149	0.215
14.0558	0.275
14.0968	0.361
14.1377	0.426
14.1786	0.436
14.2196	0.405
14.2605	0.342
14.3015	0.261
14.3424	0.186
14.3833	0.126
14.4243	0.104
14.4652	0.131
14.5062	0.207
14.5471	0.306
14.588	0.395
14.629	0.465
14.6699	0.503
14.7108	0.532
14.7518	0.541
14.7927	0.53
14.8337	0.501
14.8746	0.493
14.9155	0.508
14.9565	0.529
14.9974	0.546
15.0384	0.542
15.0793	0.537
15.1202	0.553
15.1612	0.58
15.2021	0.589
15.243	0.587
15.284	0.578
15.3249	0.578
15.3659	0.571
15.4068	0.57
15.4477	0.566
15.4887	0.558
15.5296	0.553
15.5705	0.549
15.6115	0.546
15.6524	0.542
15.6934	0.541
15.7343	0.537
15.7752	0.535
15.8162	0.523
15.8571	0.511
15.8981	0.51
15.939	0.508
15.9799	0.503
