Infrared Spectrum: 2-Biphenylcarboxylic acid
Formula: C 13 H 10 O 2
CAS: 947-84-2
State: gas
Instrument: HP-GC/MS/IRD
Origin: NIST Mass Spectrometry Data Center
1/CM	ABSORBANCE
550	0.0023161
562	0.003705
574	0.0045429
586	0.0040413
598	0.0029127
610	0.0017081
622	0.0023921
634	0.004389
646	0.0015979
658	0.0005624
670	0.0007277
682	0.0011742
694	0.003762
706	0.0034751
718	0.002223
730	0.002679
742	0.0037715
754	0.0047671
766	0.0029602
778	0.0015713
790	0.0011951
802	0.000722
814	0.0006935
826	0.0014478
838	0.0016853
850	0.0008968
862	0.0022287
874	0.0027113
886	0.0008683
898	0.0010127
910	0.0004294
922	0.000228
934	0.0001216
946	0.0001102
958	0.000114
970	1.9e-06
982	1.9e-05
994	0.0002983
1006	0.0009633
1018	0.0008645
1030	0.0017651
1042	0.0040869
1054	0.0040033
1066	0.0047709
1078	0.0038912
1090	0.0049153
1102	0.0073606
1114	0.0089281
1126	0.0062377
1138	0.0033326
1150	0.0026619
1162	0.0042674
1174	0.0078337
1186	0.0101536
1198	0.0055423
1210	0.002299
1222	0.0013319
1234	0.0011381
1246	0.0015314
1258	0.0020083
1270	0.0022249
1282	0.002812
1294	0.0034466
1306	0.0038741
1318	0.0046892
1330	0.0059223
1342	0.0087571
1354	0.0089604
1366	0.0051338
1378	0.0033611
1390	0.002508
1402	0.0023104
1414	0.0016245
1426	0.001121
1438	0.0014098
1450	0.001634
1462	0.001691
1474	0.0025422
1486	0.0017214
1498	0.0010431
1510	0.00114
1522	0.0021071
1534	0.0043947
1546	0.0076798
1558	0.0077976
1570	0.0063042
1582	0.0044289
1594	0.0030609
1606	0.0024263
1618	0.001444
1630	0.0008607
1642	0.0005586
1654	0.000399
1666	0.0004427
1678	0.0004503
1690	0.0005054
1702	0.0007752
1714	0.0014174
1726	0.0027303
1738	0.0050521
1750	0.0114836
1762	0.0178049
1774	0.0187739
1786	0.0124697
1798	0.005225
1810	0.0021603
1822	0.0009785
1834	0.0005548
1846	0.0004009
1858	0.0003382
1870	0.0003192
1882	0.0002888
1894	0.0002869
1906	0.0003059
1918	0.0002717
1930	0.0003553
1942	0.0002679
1954	0.0002812
1966	0.0001672
1978	0.0001178
1990	7.98e-05
2002	6.27e-05
2014	3.04e-05
2026	4.37e-05
2038	3.04e-05
2050	3.42e-05
2062	2.28e-05
2074	3.42e-05
2086	7.6e-06
2098	3.04e-05
2110	4.56e-05
2122	4.94e-05
2134	5.13e-05
2146	6.65e-05
2158	2.66e-05
2170	8.17e-05
2182	6.27e-05
2194	5.32e-05
2206	4.75e-05
2218	6.08e-05
2230	5.13e-05
2242	7.79e-05
2254	6.46e-05
2266	5.13e-05
2278	0.0001045
2290	0.0001691
2302	0.0002166
2314	0.0003306
2326	0.0003876
2338	0.0003591
2350	0.0003458
2362	0.0004712
2374	0.0004161
2386	0.0001672
2398	6.84e-05
2410	7.79e-05
2422	9.5e-05
2434	8.74e-05
2446	7.98e-05
2458	7.79e-05
2470	5.13e-05
2482	7.03e-05
2494	7.79e-05
2506	5.89e-05
2518	7.6e-05
2530	3.8e-05
2542	4.37e-05
2554	3.23e-05
2566	5.7e-05
2578	5.32e-05
2590	6.08e-05
2602	6.08e-05
2614	6.27e-05
2626	7.03e-05
2638	6.84e-05
2650	5.51e-05
2662	3.99e-05
2674	7.03e-05
2686	0.0001007
2698	8.93e-05
2710	6.65e-05
2722	8.74e-05
2734	6.46e-05
2746	5.51e-05
2758	3.99e-05
2770	7.79e-05
2782	4.94e-05
2794	8.17e-05
2806	0.0001083
2818	8.93e-05
2830	0.0001121
2842	0.0001368
2854	0.0001691
2866	0.0002242
2878	0.0002432
2890	0.000266
2902	0.0002622
2914	0.0002033
2926	0.0002242
2938	0.0002185
2950	0.0001786
2962	0.0001558
2974	0.0001748
2986	0.0001425
2998	0.000247
3010	0.0003439
3022	0.0008151
3034	0.0013623
3046	0.0010488
3058	0.0016834
3070	0.003002
3082	0.002147
3094	0.00114
3106	0.0007011
3118	0.0003724
3130	0.0002527
3142	0.0002052
3154	0.0001558
3166	0.0001121
3178	4.94e-05
3190	0.0001007
3202	0.0001045
3214	7.41e-05
3226	6.08e-05
3238	3.04e-05
3250	4.18e-05
3262	8.74e-05
3274	2.28e-05
3286	3.61e-05
3298	1.52e-05
3310	9.88e-05
3322	8.93e-05
3334	3.23e-05
3346	5.7e-05
3358	0.0001064
3370	4.37e-05
3382	7.79e-05
3394	6.65e-05
3406	0.0001064
3418	8.93e-05
3430	0.0001349
3442	0.0001007
3454	0.0001862
3466	0.0001064
3478	0.000152
3490	0.0002679
3502	0.0001976
3514	0.0003629
3526	0.0005187
3538	0.0006707
3550	0.0011514
3562	0.0051471
3574	0.0102125
3586	0.0033497
3598	0.0006517
3610	0.0003021
3622	0.0002584
3634	0.000152
3646	4.18e-05
3658	6.08e-05
3670	8.93e-05
3682	5.13e-05
3694	8.17e-05
3706	0.0001045
3718	8.55e-05
3730	7.6e-05
3742	1.9e-06
3754	2.85e-05
3766	7.03e-05
3778	3.04e-05
3790	0.0001197
3802	0
3814	4.56e-05
3826	2.47e-05
3838	3.61e-05
