Infrared Spectrum: 9-Chlorophenanthrene
Formula: C 14 H 9 Cl
CAS: 947-72-8
State: gas
Instrument: HP-GC/MS/IRD
Origin: NIST Mass Spectrometry Data Center
1/CM	ABSORBANCE
550	0.0002576
562	0.00014
574	0.0001408
586	0.0001496
598	0.000544
610	0.0012992
622	0.000952
634	0.0001176
646	0.0001032
658	0.000136
670	0.0001248
682	0.000144
694	0.0001664
706	0.0007208
718	0.0038744
730	0.0039536
742	0.0069088
754	0.008
766	0.0022424
778	0.000464
790	0.0002688
802	0.00018
814	0.0003208
826	0.0003056
838	0.0005112
850	0.0011424
862	0.001548
874	0.0018344
886	0.0015384
898	0.0002488
910	0.0002464
922	0.0011176
934	0.0041448
946	0.0026896
958	0.0010056
970	0.0003984
982	0.0002016
994	0.000416
1006	0.0003888
1018	0.0002048
1030	0.0003352
1042	0.0005584
1054	0.0002928
1066	6e-05
1078	1.6e-06
1090	6.88e-05
1102	0.0001416
1114	1.6e-06
1126	0.0001624
1138	0.0005424
1150	0.0010136
1162	0.0007536
1174	0.00058
1186	0.0009328
1198	0.0010408
1210	0.0010904
1222	0.0005464
1234	0.0003584
1246	0.0003088
1258	0.0001944
1270	0.0006712
1282	0.001132
1294	0.0008928
1306	0.0001856
1318	0.0001032
1330	0.0001
1342	0.0001632
1354	0.0003608
1366	0.0012744
1378	0.0013408
1390	0.0004904
1402	0.0003592
1414	0.0003872
1426	0.000668
1438	0.0008496
1450	0.0018104
1462	0.0005296
1474	0.000348
1486	0.0012904
1498	0.001324
1510	0.0002336
1522	0.0002608
1534	0.000188
1546	0.0001104
1558	0.0002328
1570	0.0008392
1582	0.0011856
1594	0.0014464
1606	0.0011544
1618	0.0009416
1630	0.0003472
1642	0.0001792
1654	5.2e-05
1666	0.0001888
1678	0.000296
1690	0.0004376
1702	0.0003392
1714	0.0002424
1726	0.0002696
1738	0.0001488
1750	0.0002624
1762	0.0002904
1774	9.52e-05
1786	0.0001912
1798	0.0001968
1810	0.0003616
1822	0.0003192
1834	0.0002384
1846	0.000116
1858	0.0001056
1870	6.4e-05
1882	0.0002048
1894	0.0002728
1906	0.0002888
1918	0.000408
1930	0.0002584
1942	0.000496
1954	0.0002928
1966	6.96e-05
1978	5.12e-05
1990	3.28e-05
2002	1.2e-05
2014	1.92e-05
2026	1.84e-05
2038	4e-06
2050	7.2e-06
2062	1.84e-05
2074	5.12e-05
2086	4.08e-05
2098	1.76e-05
2110	2.72e-05
2122	3.36e-05
2134	7.76e-05
2146	4e-05
2158	3.44e-05
2170	2.48e-05
2182	3.28e-05
2194	7.04e-05
2206	2.24e-05
2218	4.72e-05
2230	4.96e-05
2242	3.92e-05
2254	2.56e-05
2266	4.24e-05
2278	1.44e-05
2290	3.36e-05
2302	5.6e-05
2314	7.92e-05
2326	7.04e-05
2338	1.36e-05
2350	2.16e-05
2362	3.28e-05
2374	8.88e-05
2386	7.6e-05
2398	1.6e-06
2410	6.56e-05
2422	4.08e-05
2434	6.48e-05
2446	6.08e-05
2458	6.64e-05
2470	5.28e-05
2482	8.24e-05
2494	5.76e-05
2506	6.4e-05
2518	6.16e-05
2530	7.36e-05
2542	7.68e-05
2554	3.52e-05
2566	8.08e-05
2578	6.32e-05
2590	6.56e-05
2602	7.52e-05
2614	6.56e-05
2626	7.84e-05
2638	3.04e-05
2650	4.96e-05
2662	5.68e-05
2674	0.0001024
2686	7.52e-05
2698	4.16e-05
2710	4.08e-05
2722	7.92e-05
2734	4.4e-05
2746	6.64e-05
2758	3.04e-05
2770	6.08e-05
2782	6.24e-05
2794	6.32e-05
2806	5.6e-05
2818	8.8e-05
2830	6.56e-05
2842	5.28e-05
2854	7.68e-05
2866	8.88e-05
2878	0.0001096
2890	0.0001224
2902	7.52e-05
2914	0.0001584
2926	0.0001824
2938	0.0002208
2950	0.0001312
2962	0.0001696
2974	0.0001704
2986	0.0001392
2998	0.0002576
3010	0.0004648
3022	0.0008856
3034	0.0013296
3046	0.0014856
3058	0.0027
3070	0.003896
3082	0.0038384
3094	0.0024864
3106	0.0013632
3118	0.0005432
3130	0.0002976
3142	0.0001904
3154	0.00014
3166	0.0001392
3178	0.0001464
3190	0.0001264
3202	0.0001296
3214	0.0001096
3226	0.0001504
3238	0.0001248
3250	5.92e-05
3262	6.16e-05
3274	0.0001016
3286	8.16e-05
3298	6.72e-05
3310	9.04e-05
3322	0.0001272
3334	0.0001216
3346	8.08e-05
3358	0.0001064
3370	0.0001128
3382	0.000132
3394	8.8e-05
3406	8.32e-05
3418	0.0001424
3430	0.000108
3442	0.0001032
3454	6e-05
3466	8.8e-05
3478	6.8e-05
3490	0.000124
3502	8.48e-05
3514	0.0002144
3526	6.48e-05
3538	0.0001272
3550	6.56e-05
3562	7.52e-05
3574	4.56e-05
3586	0.0001064
3598	8.24e-05
3610	3.28e-05
3622	0.0001152
3634	0.0001152
3646	0.0001024
3658	0.0001064
3670	0.0001032
3682	7.76e-05
3694	5.92e-05
3706	8.08e-05
3718	0.0001568
3730	6.4e-05
3742	3.28e-05
3754	8.24e-05
3766	0.000124
3778	6.8e-05
3790	6.16e-05
3802	0.0001208
3814	0.000144
3826	8.72e-05
3838	7.36e-05
