Infrared Spectrum: Dimethyl bicyclo[2.2.1]-2,5-heptadiene-1,2-dicarboxylate
Formula: C 11 H 12 O 4
CAS: 947-57-9
State: gas
Origin: EPA-IR VAPOR PHASE LIBRARY
1/CM	ABSORBANCE
549.8	0.0005503
559.445	0.0006357
569.09	0.0008883
578.734	0.0010328
588.379	0.0005123
598.024	0.0007361
607.669	0.0010623
617.313	0.0010007
626.958	0.0010586
636.603	0.0011082
646.248	0.001451
655.893	0.001771
665.537	0.002031
675.182	0.002261
684.827	0.003101
694.472	0.006951
704.116	0.019611
713.761	0.022971
723.406	0.012891
733.051	0.011671
742.695	0.009851
752.34	0.007951
761.985	0.008091
771.63	0.008911
781.275	0.009671
790.919	0.005971
800.564	0.003361
810.209	0.003021
819.854	0.004421
829.498	0.004771
839.143	0.003091
848.788	0.002261
858.433	0.002771
868.078	0.004031
877.722	0.004411
887.367	0.003421
897.012	0.002881
906.657	0.002981
916.301	0.004171
925.946	0.004421
935.591	0.003981
945.236	0.004461
954.88	0.004671
964.525	0.003291
974.17	0.002471
983.815	0.002451
993.46	0.002901
1003.1	0.004591
1012.75	0.010701
1022.39	0.015751
1032.04	0.008631
1041.68	0.011801
1051.33	0.024301
1060.97	0.024141
1070.62	0.016461
1080.26	0.021861
1089.91	0.041701
1099.55	0.060711
1109.2	0.037951
1118.84	0.017401
1128.49	0.013771
1138.13	0.023071
1147.78	0.044881
1157.42	0.040051
1167.07	0.017741
1176.71	0.015491
1186.36	0.019491
1196	0.026351
1205.64	0.027321
1215.29	0.032401
1224.93	0.065491
1234.58	0.091781
1244.22	0.089781
1253.87	0.107181
1263.51	0.103941
1273.16	0.084131
1282.8	0.064441
1292.45	0.065331
1302.09	0.050701
1311.74	0.041981
1321.38	0.041801
1331.03	0.030101
1340.67	0.017261
1350.32	0.010861
1359.96	0.008021
1369.61	0.006401
1379.25	0.005511
1388.9	0.004941
1398.54	0.004631
1408.18	0.005011
1417.83	0.005891
1427.47	0.013491
1437.12	0.029621
1446.76	0.017101
1456.41	0.009121
1466.05	0.006861
1475.7	0.005151
1485.34	0.004091
1494.99	0.003361
1504.63	0.003041
1514.28	0.002931
1523.92	0.002941
1533.57	0.003221
1543.21	0.003911
1552.86	0.007131
1562.5	0.009051
1572.15	0.005111
1581.79	0.003921
1591.44	0.004751
1601.08	0.006261
1610.73	0.010041
1620.37	0.018461
1630.01	0.023761
1639.66	0.016111
1649.3	0.008841
1658.95	0.007021
1668.59	0.006891
1678.24	0.007671
1687.88	0.009801
1697.53	0.013791
1707.17	0.023111
1716.82	0.049501
1726.46	0.101891
1736.11	0.118301
1745.75	0.094461
1755.4	0.072731
1765.04	0.043791
1774.69	0.023601
1784.33	0.013391
1793.98	0.007951
1803.62	0.004971
1813.27	0.003541
1822.91	0.002881
1832.55	0.002501
1842.2	0.002221
1851.84	0.001881
1861.49	0.001571
1871.13	0.001361
1880.78	0.0012852
1890.42	0.00119
1900.07	0.0011373
1909.71	0.0011455
1919.36	0.0011585
1929	0.0011517
1938.65	0.0010704
1948.29	0.0010772
1957.94	0.0011821
1967.58	0.001361
1977.23	0.001391
1986.87	0.0012568
1996.52	0.001451
2006.16	0.001541
2015.81	0.001681
2025.45	0.001671
2035.1	0.001531
2044.74	0.001491
2054.38	0.001451
2064.03	0.001391
2073.67	0.0012811
2083.32	0.0012675
2092.96	0.0012494
2102.61	0.0011989
2112.25	0.0012667
2121.9	0.0011756
2131.54	0.0010391
2141.19	0.0010133
2150.83	0.0010316
2160.48	0.001035
2170.12	0.0009522
2179.77	0.0008306
2189.41	0.0008801
2199.06	0.0008453
2208.7	0.0007425
2218.35	0.000667
2227.99	0.0007456
2237.64	0.0006506
2247.28	0.0006634
2256.92	0.0006117
2266.57	0.0005337
2276.21	0.0004569
2285.86	0.0004762
2295.5	0.0005109
2305.15	0.000449
2314.79	0.0004795
2324.44	0.00042973
2334.08	0.0005531
2343.73	0.0005288
2353.37	0.0005827
2363.02	0.0006209
2372.66	0.0005668
2382.31	0.0005677
2391.95	0.0005973
2401.6	0.0005489
2411.24	0.0005598
2420.89	0.0006553
2430.53	0.0005042
2440.18	0.0004552
2449.82	0.0005275
2459.47	0.0004482
2469.11	0.00039757
2478.75	0.00035217
2488.4	0.0004382
2498.04	0.0004427
2507.69	0.0003745
2517.33	0.0004069
2526.98	0.0004338
2536.62	0.0005149
2546.27	0.00038831
2555.91	0.0004755
2565.56	0.000513
2575.2	0.0004358
2584.85	0.0004934
2594.49	0.0005499
2604.14	0.0004909
2613.78	0.0005844
2623.43	0.0005211
2633.07	0.0004803
2642.72	0.0005703
2652.36	0.0004786
2662.01	0.00051
2671.65	0.00042706
2681.29	0.0004416
2690.94	0.00035245
2700.58	0.0003105
2710.23	0.00036057
2719.87	0.0002633
2729.52	0.0002564
2739.16	0.0002595
2748.81	0.000312
2758.45	0.00040166
2768.1	0.0004361
2777.74	0.00039954
2787.39	0.0004805
2797.03	0.000545
2806.68	0.000714
2816.32	0.0009176
2825.97	0.001391
2835.61	0.002781
2845.26	0.005321
2854.9	0.004811
2864.55	0.003261
2874.19	0.005791
2883.84	0.008251
2893.48	0.005861
2903.12	0.005761
2912.77	0.005971
2922.41	0.006121
2932.06	0.007361
2941.7	0.015761
2951.35	0.036621
2960.99	0.038331
2970.64	0.020201
2980.28	0.025041
2989.93	0.020011
2999.57	0.013621
3009.22	0.021241
3018.86	0.019761
3028.51	0.009681
3038.15	0.005701
3047.8	0.003981
3057.44	0.003181
3067.09	0.003681
3076.73	0.005241
3086.38	0.005381
3096.02	0.003131
3105.67	0.002161
3115.31	0.002051
3124.95	0.002461
3134.6	0.002361
3144.24	0.0010395
3153.89	0.0009096
3163.53	0.0006921
3173.18	0.0006181
3182.82	0.00040561
3192.47	0.00039104
3202.11	0.0004658
3211.76	0.00042556
3221.4	0.0002936
3231.05	0.000222
3240.69	0.0002477
3250.34	0.0003186
3259.98	0.0002734
3269.63	0.0002494
3279.27	0.0002586
3288.92	0.000201
3298.56	0.0002686
3308.21	0.0003463
3317.85	0.0003055
3327.49	0.000209
3337.14	0.0002584
3346.78	0.00036028
3356.43	0.000334637
3366.07	0.00037624
3375.72	0.0004633
3385.36	0.0004486
3395.01	0.0004475
3404.65	0.00038114
3414.3	0.0005877
3423.94	0.0005325
3433.59	0.0008471
3443.23	0.0010334
3452.88	0.0010982
3462.52	0.001135
3472.17	0.0010182
3481.81	0.0008921
3491.46	0.0009829
3501.1	0.0007702
3510.75	0.0006577
3520.39	0.0004792
3530.04	0.0004818
3539.68	0.0004625
3549.32	0.000131
3558.97	0.000226
3568.61	0.000203
3578.26	0.0002903
3587.9	0.0002517
3597.55	0.0002653
3607.19	0.0002413
3616.84	0.00023
3626.48	4.1e-05
3636.13	7.1e-05
3645.77	0.0002539
3655.42	0.000231
3665.06	0.000202
3674.71	0.00036222
3684.35	0.00035224
3694	0.000166
3703.64	0.000228
3713.29	0.000135
3722.93	0.000112
3732.58	0.0004385
3742.22	0.0002675
3751.86	0.0004664
3761.51	0.000191
3771.15	0.000192
3780.8	0.00023
3790.44	0.0005437
3800.09	0.0003139
3809.73	0.0004822
3819.38	0.00040232
3829.02	0.0004738
3838.67	0.0003192
3848.31	0.00041741
3857.96	0.0004862
3867.6	0.000331111
3877.25	0.00036288
3886.89	0.00040439
3896.54	0.00034223
3906.18	0.0003167
3915.83	0.0005221
3925.47	0.0004911
3935.12	0.00036589
3944.76	0.0004463
3954.41	0.0006564
3964.05	0.0007215
3973.69	0.0006304
3983.34	0.000417
3992.98	0.0004674
