Infrared Spectrum: O-NITRO CARBANILIC ACID, LINALYL ESTER
Formula: C17 H22 N2 O4
CAS: 94709-92-9
Class: COBLENTZ
Instrument: Not specified, most likely a grating spectrometer.
Sampling: TRANSMISSION
Path length: SMEAR
Resolution: 4
Origin: CITRUS EXPERIMENT STATION, UNIVERSITY OF FLORIDA (G. EDWARDS)
MICROMETERS	TRANSMITTANCE
2.06	0.913
2.09316	0.912
2.12632	0.909
2.15948	0.905
2.19264	0.901
2.2258	0.898
2.25895	0.9
2.29211	0.9
2.32527	0.901
2.35843	0.901
2.39159	0.901
2.42475	0.901
2.45791	0.901
2.49107	0.901
2.52423	0.901
2.55739	0.901
2.59055	0.901
2.6237	0.901
2.65686	0.901
2.69002	0.902
2.72318	0.902
2.75634	0.902
2.7895	0.904
2.82266	0.898
2.85582	0.88
2.88898	0.854
2.92214	0.77
2.9553	0.47
2.98845	0.637
3.02161	0.837
3.05477	0.88
3.08793	0.88
3.12109	0.874
3.15425	0.862
3.18741	0.83
3.22057	0.78
3.25373	0.785
3.28689	0.772
3.32005	0.68
3.3532	0.435
3.38636	0.411
3.41952	0.443
3.45268	0.561
3.48584	0.613
3.519	0.784
3.55216	0.84
3.58532	0.853
3.61848	0.864
3.65164	0.87
3.68479	0.889
3.71795	0.889
3.75111	0.885
3.78427	0.882
3.81743	0.885
3.85059	0.886
3.88375	0.89
3.91691	0.892
3.95007	0.89
3.98323	0.89
4.01639	0.89
4.04954	0.89
4.0827	0.892
4.11586	0.89
4.14902	0.892
4.18218	0.893
4.21534	0.892
4.2485	0.89
4.28166	0.889
4.31482	0.888
4.34798	0.888
4.38114	0.888
4.41429	0.889
4.44745	0.89
4.48061	0.892
4.51377	0.892
4.54693	0.89
4.58009	0.889
4.61325	0.889
4.64641	0.886
4.67957	0.886
4.71273	0.886
4.74589	0.886
4.77904	0.886
4.8122	0.886
4.84536	0.886
4.87852	0.885
4.91168	0.885
4.94484	0.884
4.978	0.885
5.01116	0.886
5.04432	0.885
5.07748	0.884
5.11064	0.882
5.14379	0.882
5.17695	0.882
5.21011	0.882
5.24327	0.88
5.27643	0.877
5.30959	0.873
5.34275	0.861
5.37591	0.849
5.40907	0.83
5.44223	0.82
5.47539	0.808
5.50854	0.818
5.5417	0.82
5.57486	0.796
5.60802	0.748
5.64118	0.617
5.67434	0.346
5.7075	0.126
5.74066	0.202
5.77382	0.335
5.80698	0.559
5.84014	0.673
5.87329	0.727
5.90645	0.743
5.93961	0.735
5.97277	0.716
6.00593	0.707
6.03909	0.661
6.07225	0.596
6.10541	0.532
6.13857	0.463
6.17173	0.151
6.20488	0.182
6.23804	0.368
6.2712	0.286
6.30436	0.113
6.33752	0.384
6.37068	0.54
6.40384	0.5
6.437	0.436
6.47016	0.31
6.50332	0.279
6.53648	0.127
6.56963	0.057
6.60279	0.065
6.63595	0.074
6.66911	0.187
6.70227	0.344
6.73543	0.411
6.76859	0.363
6.80175	0.28
6.83491	0.134
6.86807	0.106
6.90123	0.123
6.93438	0.075
6.96754	0.059
7.0007	0.117
7.03386	0.202
7.06702	0.239
7.10018	0.347
7.13334	0.402
7.1665	0.396
7.19966	0.351
7.23282	0.299
7.26598	0.335
7.29913	0.386
7.33229	0.352
7.36545	0.227
7.39861	0.07
7.43177	0.039
7.46493	0.083
7.49809	0.213
7.53125	0.274
7.56441	0.203
7.59757	0.242
7.63073	0.28
7.66388	0.294
7.69704	0.282
7.7302	0.23
7.76336	0.145
7.79652	0.11
7.82968	0.111
7.86284	0.153
7.896	0.166
7.92916	0.157
7.96232	0.113
7.99548	0.057
8.02863	0.027
8.06179	0.039
8.09495	0.081
8.12811	0.234
8.16127	0.276
8.19443	0.255
8.22759	0.165
8.26075	0.111
8.29391	0.053
8.32707	0.051
8.36023	0.07
8.39338	0.115
8.42654	0.182
8.4597	0.202
8.49286	0.194
8.52602	0.161
8.55918	0.142
8.59234	0.109
8.6255	0.101
8.65866	0.111
8.69182	0.109
8.72497	0.137
8.75813	0.234
8.79129	0.294
8.82445	0.304
8.85761	0.287
8.89077	0.287
8.92393	0.287
8.95709	0.263
8.99025	0.242
9.02341	0.251
9.05657	0.268
9.08972	0.282
9.12288	0.252
9.15604	0.182
9.1892	0.123
9.22236	0.139
9.25552	0.207
9.28868	0.271
9.32184	0.36
9.355	0.416
9.38816	0.46
9.42132	0.454
9.45447	0.423
9.48763	0.368
9.52079	0.311
9.55395	0.29
9.58711	0.256
9.62027	0.201
9.65343	0.206
9.68659	0.252
9.71975	0.336
9.75291	0.396
9.78607	0.451
9.81922	0.479
9.85238	0.513
9.88554	0.539
9.9187	0.541
9.95186	0.536
9.98502	0.517
10.0182	0.496
10.0513	0.471
10.0845	0.468
10.1177	0.478
10.1508	0.513
10.184	0.553
10.2171	0.604
10.2503	0.639
10.2835	0.656
10.3166	0.663
10.3498	0.657
10.3829	0.649
10.4161	0.619
10.4492	0.613
10.4824	0.621
10.5156	0.633
10.5487	0.632
10.5819	0.628
10.615	0.605
10.6482	0.573
10.6814	0.521
10.7145	0.472
10.7477	0.434
10.7808	0.422
10.814	0.41
10.8472	0.416
10.8803	0.439
10.9135	0.472
10.9466	0.504
10.9798	0.523
11.013	0.531
11.0461	0.524
11.0793	0.523
11.1124	0.523
11.1456	0.54
11.1787	0.551
11.2119	0.592
11.2451	0.632
11.2782	0.664
11.3114	0.691
11.3445	0.705
11.3777	0.703
11.4109	0.68
11.444	0.632
11.4772	0.564
11.5103	0.448
11.5435	0.335
11.5767	0.276
11.6098	0.348
11.643	0.447
11.6761	0.516
11.7093	0.54
11.7425	0.541
11.7756	0.555
11.8088	0.575
11.8419	0.589
11.8751	0.585
11.9082	0.581
11.9414	0.575
11.9746	0.561
12.0077	0.529
12.0409	0.495
12.074	0.483
12.1072	0.487
12.1404	0.513
12.1735	0.541
12.2067	0.579
12.2398	0.592
12.273	0.609
12.3062	0.615
12.3393	0.612
12.3725	0.612
12.4056	0.615
12.4388	0.612
12.472	0.612
12.5051	0.615
12.5383	0.615
12.5714	0.613
12.6046	0.6
12.6377	0.571
12.6709	0.505
12.7041	0.424
12.7372	0.312
12.7704	0.249
12.8035	0.25
12.8367	0.319
12.8699	0.404
12.903	0.478
12.9362	0.494
12.9693	0.471
13.0025	0.431
13.0357	0.386
13.0688	0.367
13.102	0.372
13.1351	0.399
13.1683	0.42
13.2015	0.446
13.2346	0.448
13.2678	0.432
13.3009	0.411
13.3341	0.339
13.3672	0.255
13.4004	0.146
13.4336	0.097
13.4667	0.071
13.4999	0.077
13.533	0.09
13.5662	0.139
13.5994	0.237
13.6325	0.336
13.6657	0.406
13.6988	0.474
13.732	0.519
13.7652	0.545
13.7983	0.576
13.8315	0.593
13.8646	0.601
13.8978	0.612
13.931	0.609
13.9641	0.608
13.9973	0.607
14.0304	0.605
14.0636	0.599
14.0967	0.591
14.1299	0.588
14.1631	0.58
14.1962	0.571
14.2294	0.559
14.2625	0.547
14.2957	0.532
14.3289	0.509
14.362	0.478
14.3952	0.448
14.4283	0.418
14.4615	0.382
14.4947	0.354
14.5278	0.352
14.561	0.36
14.5941	0.367
14.6273	0.368
14.6605	0.362
14.6936	0.356
14.7268	0.35
14.7599	0.343
14.7931	0.339
14.8262	0.335
14.8594	0.334
14.8926	0.332
14.9257	0.332
14.9589	0.332
14.992	0.332
15.0252	0.332
