Infrared Spectrum: 1,2,4-Triisopropylbenzene
Formula: C 15 H 24
CAS: 948-32-3
State: gas
Instrument: HP-GC/MS/IRD
Origin: NIST Mass Spectrometry Data Center
1/CM	ABSORBANCE
550	0.0010028
562	0.0007728
574	0.0003588
586	6.67e-05
598	0.0001403
610	0.0001035
622	0.0001334
634	2.76e-05
646	2.07e-05
658	0.0001587
670	0.0001426
682	0.0001265
694	0.0001265
706	0.0001817
718	0.000253
730	0.0001426
742	0.0001288
754	0.0001633
766	0.000115
778	0.0002162
790	0.0001564
802	0.0002254
814	0.0001725
826	0.0003519
838	0.0005244
850	0.0008142
862	0.0009292
874	0.0016146
886	0.0050393
898	0.0053176
910	0.0016905
922	0.0007452
934	0.0005566
946	0.0004991
958	0.0004853
970	0.000506
982	0.0005911
994	0.0005543
1006	0.0005014
1018	0.0004278
1030	0.0003772
1042	0.0003542
1054	0.000299
1066	0.000322
1078	0.0004508
1090	0.0005681
1102	0.0006693
1114	0.0009108
1126	0.0012581
1138	0.0021942
1150	0.0020838
1162	0.0009039
1174	0.0004738
1186	0.0005543
1198	0.0006394
1210	0.0007383
1222	0.0009154
1234	0.0010028
1246	0.0007268
1258	0.0006095
1270	0.0005911
1282	0.0005037
1294	0.0004738
1306	0.0005336
1318	0.0006854
1330	0.0008441
1342	0.0011914
1354	0.0016307
1366	0.0029762
1378	0.0045586
1390	0.003335
1402	0.0019228
1414	0.001587
1426	0.0022586
1438	0.0038847
1450	0.0048024
1462	0.00414
1474	0.0022747
1486	0.0012052
1498	0.0008602
1510	0.0007774
1522	0.0007521
1534	0.0007245
1546	0.0007314
1558	0.0007383
1570	0.0006601
1582	0.0006693
1594	0.0007659
1606	0.0009867
1618	0.0015985
1630	0.0029164
1642	0.0024058
1654	0.000851
1666	0.0004117
1678	0.0003128
1690	0.000253
1702	0.0001932
1714	0.0001771
1726	0.0001541
1738	0.0001587
1750	0.0001564
1762	0.000161
1774	0.0002507
1786	0.0004025
1798	0.0004048
1810	0.0002024
1822	0.0001449
1834	8.51e-05
1846	8.28e-05
1858	8.05e-05
1870	7.13e-05
1882	6.44e-05
1894	7.59e-05
1906	8.74e-05
1918	7.59e-05
1930	7.13e-05
1942	7.82e-05
1954	6.44e-05
1966	4.83e-05
1978	3.91e-05
1990	2.76e-05
2002	3.91e-05
2014	4.37e-05
2026	2.76e-05
2038	4.83e-05
2050	5.52e-05
2062	3.91e-05
2074	3.91e-05
2086	6.21e-05
2098	2.3e-05
2110	3.68e-05
2122	5.98e-05
2134	6.67e-05
2146	3.68e-05
2158	2.99e-05
2170	3.91e-05
2182	6.9e-06
2194	9.2e-06
2206	6.9e-06
2218	4.37e-05
2230	3.45e-05
2242	3.68e-05
2254	3.45e-05
2266	3.68e-05
2278	4.37e-05
2290	6.21e-05
2302	5.06e-05
2314	7.13e-05
2326	0.0001012
2338	9.89e-05
2350	0.0001012
2362	0.0001288
2374	0.0001196
2386	8.51e-05
2398	8.05e-05
2410	0.0001058
2422	0.0001012
2434	0.000115
2446	0.0001196
2458	0.0001058
2470	0.0001564
2482	0.0001541
2494	0.0001403
2506	0.0001311
2518	0.0001495
2530	0.0001449
2542	0.000138
2554	0.0001541
2566	0.0001633
2578	0.0001679
2590	0.0001863
2602	0.0002024
2614	0.0002116
2626	0.0001978
2638	0.0002507
2650	0.000299
2662	0.0003266
2674	0.0003726
2686	0.0004508
2698	0.0004692
2710	0.0005267
2722	0.0006601
2734	0.0007797
2746	0.0007245
2758	0.0006831
2770	0.0007107
2782	0.0008165
2794	0.0010143
2806	0.0014283
2818	0.002277
2830	0.0047012
2842	0.0087653
2854	0.010074
2866	0.0123671
2878	0.014743
2890	0.0160563
2902	0.0179009
2914	0.0205735
2926	0.023
2938	0.0200123
2950	0.0136735
2962	0.0126914
2974	0.0133699
2986	0.0099199
2998	0.0076038
3010	0.0057937
3022	0.0045448
3034	0.0035397
3046	0.0026174
3058	0.0019366
3070	0.0017595
3082	0.0025024
3094	0.0033603
3106	0.0017549
3118	0.000828
3130	0.0005796
3142	0.000506
3154	0.0004163
3166	0.0003703
3178	0.0003703
3190	0.0003151
3202	0.0002944
3214	0.0002898
3226	0.0001863
3238	0.0001909
3250	0.0001909
3262	0.0001748
3274	0.0001495
3286	0.0001449
3298	0.0001564
3310	0.0001127
3322	9.43e-05
3334	0.0001173
3346	0.0001357
3358	0.0001035
3370	0.0001357
3382	9.2e-05
3394	6.67e-05
3406	8.74e-05
3418	0.0001081
3430	6.44e-05
3442	8.05e-05
3454	3.22e-05
3466	4.14e-05
3478	4.37e-05
3490	7.82e-05
3502	8.74e-05
3514	3.68e-05
3526	4.37e-05
3538	4.83e-05
3550	5.29e-05
3562	3.22e-05
3574	4.83e-05
3586	5.52e-05
3598	4.37e-05
3610	5.52e-05
3622	3.68e-05
3634	9.2e-06
3646	7.13e-05
3658	2.99e-05
3670	5.29e-05
3682	4.6e-05
3694	1.38e-05
3706	2.99e-05
3718	5.75e-05
3730	7.59e-05
3742	5.06e-05
3754	7.59e-05
3766	4.83e-05
3778	7.13e-05
3790	0.0001012
3802	7.13e-05
3814	0.0001495
3826	9.2e-05
3838	7.82e-05
