Infrared Spectrum: o-METHYL-o-(2,4,5-TRICHLOROPHENYL) CHLOROTHIOPHOSPHATE
Formula: C7 H5 Cl4 O2 P S
CAS: 948-95-8
State: SOLUTION (10% CCl4 FOR 3800-1333, 10% CS2 FOR 1333-440 CM^-^1)
Class: COBLENTZ
Instrument: Not specified, most likely a prism, grating, or hybrid spectrometer.
Sampling: TRANSMISSION
Path length: 0.0116 CM, 0.0116 CM
Resolution: 4
Origin: DOW CHEMICAL COMPANY
1/CM	TRANSMITTANCE
446.254	0.723
454.805	0.715
463.355	0.713
471.906	0.708
480.456	0.6011
489.007	0.524
497.557	0.58
506.108	0.643
514.658	0.624
523.209	0.667
531.759	0.696
540.31	0.692
548.86	0.713
557.411	0.459
565.961	0.444
574.512	0.7058
583.062	0.893
591.613	0.931
600.163	0.929
608.714	0.925
617.264	0.895
625.815	0.5594
634.365	0.874
642.916	0.833
651.466	0.5896
660.017	0.175
668.567	0.4608
677.118	0.5801
685.668	0.455
694.219	0.561
702.769	0.633
711.32	0.708
719.87	0.3893
728.421	0.2
736.971	0.3278
745.522	0.6789
754.072	0.879
762.623	0.917
771.173	0.931
779.724	0.927
788.274	0.91
796.825	0.893
805.375	0.843
813.926	0.738
822.476	0.4373
831.027	0.112
839.577	0.078
848.128	0.053
856.678	0.0799
865.229	0.041
873.779	0.146
882.33	0.009
890.88	0.5089
899.431	0.803
907.981	0.877
916.532	0.891
925.082	0.891
933.633	0.87
942.183	0.7931
950.734	0.5431
959.284	0.087
967.835	0.02
976.385	0.1559
984.936	0.576
993.486	0.746
1002.04	0.759
1010.59	0.696
1019.14	0.5033
1027.69	0.1751
1036.24	0.024
1044.79	0.013
1053.34	0.032
1061.89	0.3559
1070.44	0.536
1078.99	0.2638
1087.54	0.1726
1096.09	0.681
1104.64	0.744
1113.19	0.6461
1121.74	0.1461
1130.29	0.404
1138.84	0.7319
1147.4	0.816
1155.95	0.847
1164.5	0.818
1173.05	0.6831
1181.6	0.576
1190.15	0.7838
1198.7	0.839
1207.25	0.841
1215.8	0.795
1224.35	0.5403
1232.9	0.387
1241.45	0.194
1250	0.4079
1258.55	0.528
1267.1	0.832
1275.65	0.896
1284.2	0.916
1292.75	0.916
1301.3	0.917
1309.85	0.908
1318.41	0.896
1326.96	0.893
1335.51	0.8222
1344.06	0.4043
1352.61	0.3559
1361.16	0.8278
1369.71	0.923
1378.26	0.94
1386.81	0.935
1395.36	0.917
1403.91	0.893
1412.46	0.856
1421.01	0.849
1429.56	0.837
1438.11	0.755
1446.66	0.4192
1455.21	0.0321
1463.76	0.009
1472.31	0.41
1480.86	0.467
1489.42	0.526
1497.97	0.646
1506.52	0.698
1515.07	0.667
1523.62	0.635
1532.17	0.58
1540.72	0.4821
1549.27	0.437
1557.82	0.444
1566.37	0.5409
1574.92	0.606
1583.47	0.54
1592.02	0.7149
1600.57	0.8259
1609.12	0.898
1617.67	0.935
1626.22	0.946
1634.77	0.956
1643.32	0.958
1651.87	0.965
1660.43	0.973
1668.98	0.984
1677.53	0.982
1686.08	0.982
1694.63	0.98
1703.18	0.98
1711.73	0.98
1720.28	0.979
1728.83	0.959
1737.38	0.961
1745.93	0.956
1754.48	0.975
1763.03	0.988
1771.58	0.992
1780.13	0.994
1788.68	0.99
1797.23	0.99
1805.78	0.986
1814.33	0.982
1822.88	0.988
1831.44	0.988
1839.99	0.98
1848.54	0.979
1857.09	0.975
1865.64	0.969
1874.19	0.969
1882.74	0.965
1891.29	0.975
1899.84	0.984
1908.39	0.998
1916.94	1.003
1925.49	1.005
1934.04	1.005
1942.59	1.003
1951.14	1
1959.69	1.024
1968.24	0.996
1976.79	1.001
1985.34	1.001
1993.89	0.986
2002.45	0.984
2011	0.982
2019.55	0.982
2028.1	0.989
2036.65	1.001
2045.2	1
2053.75	0.998
2062.3	0.998
2070.85	0.9941
2079.4	1.001
2087.95	1.001
2096.5	1
2105.05	0.9999
2113.6	0.9951
2122.15	1.0029
2130.7	1.0006
2139.25	0.998
2147.8	1.0004
2156.35	1.001
2164.9	1.001
2173.46	1.0028
2182.01	0.9972
2190.56	0.994
2199.11	0.9998
2207.66	0.992
2216.21	0.992
2224.76	0.992
2233.31	1.0006
2241.86	0.994
2250.41	0.9932
2258.96	0.9862
2267.51	0.9813
2276.06	0.9791
2284.61	0.969
2293.16	0.9713
2301.71	0.969
2310.26	0.9755
2318.81	0.959
2327.36	0.9712
2335.91	0.988
2344.47	0.9816
2353.02	0.9966
2361.57	0.9817
2370.12	1.015
2378.67	0.9864
2387.22	0.996
2395.77	0.996
2404.32	1.0024
2412.87	0.998
2421.42	0.9968
2429.97	1.003
2438.52	0.998
2447.07	1.003
2455.62	1.003
2464.17	0.9968
2472.72	0.9926
2481.27	0.992
2489.82	0.992
2498.37	0.9905
2506.92	1.0015
2515.48	1.003
2524.03	0.9955
2532.58	1.003
2541.13	0.997
2549.68	0.996
2558.23	1.001
2566.78	1.0015
2575.33	1
2583.88	0.998
2592.43	0.994
2600.98	0.994
2609.53	0.9976
2618.08	1.0007
2626.63	1.0002
2635.18	1.0003
2643.73	1.001
2652.28	1.005
2660.83	1.001
2669.38	1
2677.93	0.9912
2686.49	0.9848
2695.04	0.992
2703.59	0.9995
2712.14	0.992
2720.69	0.9973
2729.24	1.001
2737.79	0.9947
2746.34	0.9974
2754.89	0.9973
2763.44	1.0008
2771.99	0.998
2780.54	0.9937
2789.09	0.988
2797.64	0.9799
2806.19	0.9697
2814.74	0.9715
2823.29	0.979
2831.84	0.9787
2840.39	0.9685
2848.94	0.8997
2857.5	0.8933
2866.05	0.9699
2874.6	0.979
2883.15	0.9788
2891.7	0.9662
2900.25	0.9502
2908.8	0.9634
2917.35	0.9648
2925.9	0.9584
2934.45	0.9555
2943	0.9317
2951.55	0.8533
2960.1	0.6496
2968.65	0.8754
2977.2	0.9432
2985.75	0.9538
2994.3	0.9352
3002.85	0.9136
3011.4	0.8939
3019.95	0.8849
3028.51	0.8852
3037.06	0.91
3045.61	0.9283
3054.16	0.935
3062.71	0.9386
3071.26	0.948
3079.81	0.939
3088.36	0.9308
3096.91	0.8384
3105.46	0.8642
3114.01	0.93
3122.56	0.944
3131.11	0.951
3139.66	0.956
3148.21	0.958
3156.76	0.959
3165.31	0.9585
3173.86	0.9689
3182.41	0.9758
3190.96	0.9819
3199.52	0.982
3208.07	0.98
3216.62	0.9842
3225.17	0.982
3233.72	0.982
3242.27	0.9879
3250.82	0.988
3259.37	0.9919
3267.92	0.99
3276.47	0.988
3285.02	0.988
3293.57	0.99
3302.12	0.988
3310.67	0.986
3319.22	0.9848
3327.77	0.982
3336.32	0.98
3344.87	0.9836
3353.42	0.9852
3361.97	0.982
3370.53	0.98
3379.08	0.979
3387.63	0.9796
3396.18	0.977
3404.73	0.9794
3413.28	0.98
3421.83	0.9783
3430.38	0.98
3438.93	0.982
3447.48	0.984
3456.03	0.98
3464.58	0.9857
3473.13	0.986
3481.68	0.9897
3490.23	0.9893
3498.78	1
3507.33	0.9926
3515.88	0.996
3524.43	0.9966
3532.98	0.9944
3541.54	0.99
3550.09	0.9985
3558.64	0.9972
3567.19	1.001
3575.74	1.001
3584.29	1.001
3592.84	1.0016
3601.39	1.003
3609.94	1
3618.49	0.998
3627.04	1.0003
3635.59	1.001
3644.14	1.001
3652.69	1
3661.24	1.0015
3669.79	1.0035
3678.34	1.0008
3686.89	1
3695.44	0.9955
3703.99	1.003
3712.55	1.003
3721.1	1.003
3729.65	1.001
3738.2	1.001
3746.75	1.001
3755.3	1.003
3763.85	1
3772.4	1
3780.95	1.0034
3789.5	1.005
