Infrared Spectrum: M-NITRO CARBANILIC ACID, n-DECYL ESTER
Formula: C17 H26 N2 O4
CAS: 94861-52-6
State: SOLID (1.6 mg / 200 mg KBr)
Class: COBLENTZ
Instrument: Not specified, most likely a grating spectrometer.
Sampling: TRANSMISSION
Resolution: 4
Origin: CITRUS EXPERIMENT STATION, UNIVERSITY OF FLORIDA (G. EDWARDS)
MICROMETERS	TRANSMITTANCE
2.033	0.397
2.06619	0.4
2.09938	0.402
2.13258	0.404
2.16577	0.404
2.19896	0.401
2.23215	0.402
2.26535	0.412
2.29854	0.413
2.33173	0.42
2.36492	0.42
2.39811	0.421
2.43131	0.424
2.4645	0.426
2.49769	0.429
2.53088	0.432
2.56408	0.442
2.59727	0.444
2.63046	0.442
2.66365	0.442
2.69684	0.444
2.73004	0.441
2.76323	0.437
2.79642	0.434
2.82961	0.432
2.86281	0.422
2.896	0.392
2.92919	0.28
2.96238	0.392
2.99557	0.432
3.02877	0.45
3.06196	0.454
3.09515	0.454
3.12834	0.448
3.16154	0.449
3.19473	0.449
3.22792	0.449
3.26111	0.448
3.2943	0.436
3.3275	0.378
3.36069	0.261
3.39388	0.233
3.42707	0.326
3.46027	0.329
3.49346	0.396
3.52665	0.478
3.55984	0.492
3.59303	0.502
3.62623	0.512
3.65942	0.516
3.69261	0.517
3.7258	0.518
3.759	0.518
3.79219	0.518
3.82538	0.521
3.85857	0.521
3.89176	0.521
3.92496	0.532
3.95815	0.536
3.99134	0.538
4.02453	0.54
4.05773	0.542
4.09092	0.548
4.12411	0.55
4.1573	0.552
4.19049	0.557
4.22369	0.557
4.25688	0.554
4.29007	0.554
4.32326	0.554
4.35646	0.556
4.38965	0.56
4.42284	0.56
4.45603	0.56
4.48922	0.56
4.52242	0.56
4.55561	0.561
4.5888	0.561
4.62199	0.565
4.65519	0.569
4.68838	0.57
4.72157	0.569
4.75476	0.569
4.78796	0.568
4.82115	0.568
4.85434	0.569
4.88753	0.573
4.92072	0.578
4.95392	0.58
4.98711	0.582
5.0203	0.582
5.05349	0.582
5.08669	0.581
5.11988	0.584
5.15307	0.588
5.18626	0.588
5.21945	0.588
5.25265	0.588
5.28584	0.59
5.31903	0.589
5.35222	0.584
5.38542	0.58
5.41861	0.577
5.4518	0.576
5.48499	0.573
5.51818	0.566
5.55138	0.554
5.58457	0.544
5.61776	0.501
5.65095	0.477
5.68415	0.416
5.71734	0.336
5.75053	0.278
5.78372	0.28
5.81691	0.388
5.85011	0.489
5.8833	0.545
5.91649	0.55
5.94968	0.553
5.98288	0.553
6.01607	0.524
6.04926	0.506
6.08245	0.5
6.11564	0.492
6.14884	0.496
6.18203	0.489
6.21522	0.481
6.24841	0.484
6.28161	0.481
6.3148	0.404
6.34799	0.32
6.38118	0.297
6.41437	0.324
6.44757	0.384
6.48076	0.416
6.51395	0.468
6.54714	0.538
6.58034	0.556
6.61353	0.558
6.64672	0.548
6.67991	0.532
6.7131	0.505
6.7463	0.512
6.77949	0.524
6.81268	0.541
6.84587	0.54
6.87907	0.538
6.91226	0.526
6.94545	0.533
6.97864	0.582
7.01183	0.621
7.04503	0.626
7.07822	0.628
7.11141	0.618
7.1446	0.604
7.1778	0.592
7.21099	0.553
7.24418	0.504
7.27737	0.457
7.31056	0.328
7.34376	0.245
7.37695	0.189
7.41014	0.28
7.44333	0.374
7.47653	0.413
7.50972	0.436
7.54291	0.481
7.5761	0.561
7.60929	0.58
7.64249	0.578
7.67568	0.548
7.70887	0.489
7.74206	0.409
7.77526	0.454
7.80845	0.572
7.84164	0.605
7.87483	0.6
7.90802	0.58
7.94122	0.518
7.97441	0.45
8.0076	0.364
8.04079	0.256
8.07399	0.28
8.10718	0.401
8.14037	0.522
8.17356	0.588
8.20675	0.624
8.23995	0.649
8.27314	0.666
8.30633	0.682
8.33952	0.692
8.37272	0.696
8.40591	0.696
8.4391	0.693
8.47229	0.692
8.50548	0.685
8.53868	0.677
8.57187	0.678
8.60506	0.693
8.63825	0.712
8.67145	0.716
8.70464	0.716
8.73783	0.716
8.77102	0.716
8.80421	0.716
8.83741	0.716
8.8706	0.716
8.90379	0.71
8.93698	0.7
8.97018	0.678
9.00337	0.636
9.03656	0.59
9.06975	0.542
9.10294	0.528
9.13614	0.56
9.16933	0.6
9.20252	0.63
9.23571	0.65
9.26891	0.65
9.3021	0.641
9.33529	0.6
9.36848	0.561
9.40167	0.58
9.43487	0.629
9.46806	0.685
9.50125	0.716
9.53444	0.74
9.56764	0.756
9.60083	0.766
9.63402	0.773
9.66721	0.781
9.7004	0.784
9.7336	0.784
9.76679	0.784
9.79998	0.788
9.83317	0.788
9.86637	0.788
9.89956	0.785
9.93275	0.784
9.96594	0.785
9.99913	0.797
10.0323	0.801
10.0655	0.802
10.0987	0.804
10.1319	0.806
10.1651	0.806
10.1983	0.806
10.2315	0.806
10.2647	0.806
10.2979	0.808
10.3311	0.813
10.3642	0.816
10.3974	0.816
10.4306	0.814
10.4638	0.814
10.497	0.81
10.5302	0.802
10.5634	0.776
10.5966	0.754
10.6298	0.722
10.663	0.713
10.6962	0.742
10.7294	0.793
10.7626	0.81
10.7957	0.822
10.8289	0.826
10.8621	0.83
10.8953	0.833
10.9285	0.834
10.9617	0.834
10.9949	0.834
11.0281	0.834
11.0613	0.832
11.0945	0.822
11.1277	0.814
11.1609	0.808
11.1941	0.792
11.2272	0.762
11.2604	0.729
11.2936	0.641
11.3268	0.657
11.36	0.789
11.3932	0.829
11.4264	0.853
11.4596	0.854
11.4928	0.857
11.526	0.862
11.5592	0.862
11.5924	0.862
11.6256	0.862
11.6587	0.861
11.6919	0.861
11.7251	0.864
11.7583	0.864
11.7915	0.865
11.8247	0.862
11.8579	0.862
11.8911	0.861
11.9243	0.853
11.9575	0.842
11.9907	0.829
12.0239	0.806
12.0571	0.765
12.0902	0.729
12.1234	0.748
12.1566	0.822
12.1898	0.845
12.223	0.846
12.2562	0.842
12.2894	0.836
12.3226	0.828
12.3558	0.81
12.389	0.773
12.4222	0.734
12.4554	0.702
12.4886	0.704
12.5217	0.785
12.5549	0.833
12.5881	0.854
12.6213	0.856
12.6545	0.854
12.6877	0.852
12.7209	0.848
12.7541	0.841
12.7873	0.836
12.8205	0.822
12.8537	0.81
12.8869	0.776
12.9201	0.741
12.9532	0.701
12.9864	0.621
13.0196	0.561
13.0528	0.584
13.086	0.63
13.1192	0.644
13.1524	0.664
13.1856	0.718
13.2188	0.789
13.252	0.824
13.2852	0.832
13.3184	0.828
13.3516	0.816
13.3847	0.805
13.4179	0.782
13.4511	0.749
13.4843	0.69
13.5175	0.588
13.5507	0.496
13.5839	0.446
13.6171	0.524
13.6503	0.65
13.6835	0.737
13.7167	0.777
13.7499	0.776
13.783	0.774
13.8162	0.778
13.8494	0.784
13.8826	0.809
13.9158	0.825
13.949	0.83
13.9822	0.829
14.0154	0.829
14.0486	0.826
14.0818	0.817
14.115	0.813
14.1482	0.81
14.1814	0.801
14.2145	0.8
14.2477	0.796
14.2809	0.78
14.3141	0.765
14.3473	0.761
14.3805	0.749
14.4137	0.742
14.4469	0.725
14.4801	0.704
14.5133	0.677
14.5465	0.65
14.5797	0.637
14.6129	0.64
14.646	0.645
14.6792	0.653
14.7124	0.653
14.7456	0.646
14.7788	0.641
14.812	0.628
14.8452	0.622
14.8784	0.621
14.9116	0.626
14.9448	0.637
14.978	0.648
15.0112	0.648
