Infrared Spectrum: 2,3,3,3'-TETRACHLOROACRYLANILIDE
Formula: C9 H5 Cl4 N O
CAS: 949-53-1
State: SOLID (MINERAL OIL MULL)
Class: COBLENTZ
Instrument: Not specified, most likely a prism, grating, or hybrid spectrometer.
Sampling: TRANSMISSION
Resolution: 4
Origin: DOW CHEMICAL COMPANY
MICROMETERS	TRANSMITTANCE
2.048	0.513
2.08874	0.52
2.12947	0.53
2.17021	0.54
2.21094	0.55
2.25168	0.55
2.29241	0.552
2.33315	0.56
2.37389	0.574
2.41462	0.582
2.45536	0.592
2.49609	0.599
2.53683	0.602
2.57756	0.614
2.6183	0.627
2.65904	0.631
2.69977	0.643
2.74051	0.646
2.78124	0.648
2.82198	0.646
2.86272	0.641
2.90345	0.638
2.94419	0.619
2.98492	0.542
3.02566	0.336
3.06639	0.22
3.10713	0.361
3.14787	0.42
3.1886	0.437
3.22934	0.42
3.27007	0.425
3.31081	0.478
3.35154	0.26
3.39228	0.042
3.43302	0.104
3.47375	0.156
3.51449	0.446
3.55522	0.664
3.59596	0.72
3.63669	0.732
3.67743	0.73
3.71817	0.747
3.7589	0.75
3.79964	0.76
3.84037	0.767
3.88111	0.777
3.92185	0.792
3.96258	0.797
4.00332	0.811
4.04405	0.813
4.08479	0.819
4.12552	0.824
4.16626	0.818
4.207	0.813
4.24773	0.821
4.28847	0.838
4.3292	0.848
4.36994	0.85
4.41067	0.855
4.45141	0.86
4.49215	0.861
4.53288	0.863
4.57362	0.868
4.61435	0.867
4.65509	0.87
4.69582	0.87
4.73656	0.875
4.7773	0.877
4.81803	0.878
4.85877	0.878
4.8995	0.882
4.94024	0.883
4.98098	0.89
5.02171	0.888
5.06245	0.893
5.10318	0.892
5.14392	0.883
5.18465	0.895
5.22539	0.9
5.26613	0.904
5.30686	0.898
5.3476	0.89
5.38833	0.887
5.42907	0.9
5.4698	0.898
5.51054	0.897
5.55128	0.898
5.59201	0.888
5.63275	0.882
5.67348	0.863
5.71422	0.861
5.75495	0.868
5.79569	0.865
5.83643	0.838
5.87716	0.764
5.9179	0.574
5.95863	0.311
5.99937	0.175
6.04011	0.127
6.08084	0.244
6.12158	0.439
6.16231	0.461
6.20305	0.296
6.24378	0.101
6.28452	0.299
6.32526	0.567
6.36599	0.58
6.40673	0.424
6.44746	0.23
6.4882	0.188
6.52893	0.303
6.56967	0.494
6.61041	0.619
6.65114	0.646
6.69188	0.575
6.73261	0.4
6.77335	0.299
6.81408	0.291
6.85482	0.346
6.89556	0.346
6.93629	0.289
6.97703	0.151
7.01776	0.378
7.0585	0.5
7.09924	0.562
7.13997	0.629
7.18071	0.612
7.22144	0.506
7.26218	0.56
7.30291	0.638
7.34365	0.691
7.38439	0.691
7.42512	0.681
7.46586	0.69
7.50659	0.678
7.54733	0.553
7.58806	0.402
7.6288	0.449
7.66954	0.494
7.71027	0.37
7.75101	0.654
7.79174	0.74
7.83248	0.765
7.87321	0.695
7.91395	0.505
7.95469	0.676
7.99542	0.767
8.03616	0.771
8.07689	0.713
8.11763	0.651
8.15836	0.688
8.1991	0.749
8.23984	0.782
8.28057	0.794
8.32131	0.796
8.36204	0.791
8.40278	0.801
8.44352	0.806
8.48425	0.799
8.52499	0.779
8.56572	0.789
8.60646	0.803
8.64719	0.806
8.68793	0.806
8.72867	0.801
8.7694	0.796
8.81014	0.791
8.85087	0.796
8.89161	0.801
8.93234	0.804
8.97308	0.803
9.01382	0.796
9.05455	0.76
9.09529	0.735
9.13602	0.779
9.17676	0.796
9.21749	0.74
9.25823	0.649
9.29897	0.75
9.3397	0.821
9.38044	0.831
9.42117	0.799
9.46191	0.74
9.50265	0.824
9.54338	0.867
9.58412	0.87
9.62485	0.873
9.66559	0.872
9.70632	0.873
9.74706	0.878
9.7878	0.883
9.82853	0.887
9.86927	0.888
9.91	0.887
9.95074	0.838
9.99147	0.791
10.0322	0.877
10.0729	0.897
10.1137	0.9
10.1544	0.904
10.1952	0.907
10.2359	0.89
10.2766	0.88
10.3174	0.88
10.3581	0.882
10.3988	0.893
10.4396	0.887
10.4803	0.858
10.521	0.718
10.5618	0.496
10.6025	0.437
10.6432	0.668
10.684	0.797
10.7247	0.841
10.7655	0.843
10.8062	0.792
10.8469	0.609
10.8877	0.358
10.9284	0.198
10.9691	0.414
11.0099	0.659
11.0506	0.72
11.0913	0.765
11.1321	0.784
11.1728	0.792
11.2135	0.764
11.2543	0.707
11.295	0.589
11.3358	0.481
11.3765	0.54
11.4172	0.72
11.458	0.769
11.4987	0.782
11.5394	0.777
11.5802	0.713
11.6209	0.52
11.6616	0.336
11.7024	0.186
11.7431	0.227
11.7838	0.454
11.8246	0.675
11.8653	0.73
11.9061	0.769
11.9468	0.787
11.9875	0.797
12.0283	0.801
12.069	0.799
12.1097	0.797
12.1505	0.796
12.1912	0.794
12.2319	0.791
12.2727	0.789
12.3134	0.786
12.3541	0.779
12.3949	0.772
12.4356	0.759
12.4764	0.74
12.5171	0.693
12.5578	0.569
12.5986	0.407
12.6393	0.264
12.68	0.284
12.7208	0.313
12.7615	0.294
12.8022	0.373
12.843	0.579
12.8837	0.646
12.9244	0.648
12.9652	0.574
13.0059	0.516
13.0467	0.555
13.0874	0.597
13.1281	0.602
13.1689	0.585
13.2096	0.595
13.2503	0.646
13.2911	0.686
13.3318	0.703
13.3725	0.708
13.4133	0.71
13.454	0.702
13.4948	0.691
13.5355	0.678
13.5762	0.668
13.617	0.653
13.6577	0.639
13.6984	0.622
13.7392	0.601
13.7799	0.584
13.8206	0.562
13.8614	0.55
13.9021	0.537
13.9428	0.531
13.9836	0.528
14.0243	0.525
14.0651	0.521
14.1058	0.518
14.1465	0.516
14.1873	0.508
14.228	0.493
14.2687	0.451
14.3095	0.387
14.3502	0.328
14.3909	0.306
14.4317	0.304
14.4724	0.296
14.5131	0.271
14.5539	0.25
14.5946	0.235
14.6354	0.234
14.6761	0.237
14.7168	0.227
14.7576	0.213
14.7983	0.228
14.839	0.262
14.8798	0.308
14.9205	0.37
14.9612	0.419
15.002	0.456
15.0427	0.459
15.0834	0.464
15.1242	0.466
15.1649	0.468
15.2057	0.469
15.2464	0.469
15.2871	0.469
15.3279	0.468
15.3686	0.466
15.4093	0.464
15.4501	0.457
15.4908	0.449
15.5315	0.442
15.5723	0.436
15.613	0.429
15.6537	0.425
15.6945	0.419
15.7352	0.41
15.776	0.405
15.8167	0.4
15.8574	0.4
15.8982	0.407
15.9389	0.424
15.9796	0.439
