Infrared Spectrum: 5-PHENYL-2,3,4,5-TETRAHYDROBENZOXEPIN-5-CARBOXAMIDE
Formula: C17 H17 N O2
CAS: 94908-49-3
State: SOLUTION (7% IN CHCl3)
Class: COBLENTZ
Instrument: PERKIN-ELMER
Sampling: TRANSMISSION
Path length: 0.010 CM CELL
Resolution: 4
Origin: ABBOTT LABORATORIES - WASHBURN
MICROMETERS	TRANSMITTANCE
2.048	0.89
2.08789	0.895
2.12779	0.8981
2.16768	0.9051
2.20758	0.908
2.24747	0.9111
2.28736	0.913
2.32726	0.911
2.36715	0.911
2.40705	0.9106
2.44694	0.906
2.48683	0.911
2.52673	0.9181
2.56662	0.925
2.60651	0.925
2.64641	0.923
2.6863	0.93
2.7262	0.931
2.76609	0.9279
2.80598	0.9305
2.84588	0.6515
2.88577	0.6209
2.92567	0.817
2.96556	0.6908
3.00545	0.7829
3.04535	0.798
3.08524	0.8033
3.12514	0.8181
3.16503	0.7982
3.20492	0.8002
3.24482	0.8082
3.28471	0.7461
3.32461	0.6715
3.3645	0.6209
3.40439	0.6204
3.44429	0.7437
3.48418	0.7732
3.52407	0.8522
3.56397	0.9196
3.60386	0.9261
3.64376	0.933
3.68365	0.933
3.72354	0.9351
3.76344	0.953
3.80333	0.95
3.84323	0.953
3.88312	0.953
3.92301	0.951
3.96291	0.9481
4.0028	0.94
4.0427	0.933
4.08259	0.92
4.12248	0.91
4.16238	0.913
4.20227	0.9208
4.24216	0.9231
4.28206	0.923
4.32195	0.923
4.36185	0.923
4.40174	0.925
4.44163	0.9301
4.48153	0.933
4.52142	0.933
4.56132	0.928
4.60121	0.9253
4.6411	0.926
4.681	0.925
4.72089	0.925
4.76079	0.923
4.80068	0.921
4.84057	0.921
4.88047	0.918
4.92036	0.918
4.96026	0.91
5.00015	0.91
5.04004	0.9061
5.07994	0.905
5.11983	0.8837
5.15972	0.8893
5.19962	0.896
5.23951	0.891
5.27941	0.895
5.3193	0.893
5.35919	0.8919
5.39909	0.908
5.43898	0.9042
5.47888	0.8944
5.51877	0.8765
5.55866	0.876
5.59856	0.8883
5.63845	0.8809
5.67835	0.88
5.71824	0.873
5.75813	0.866
5.79803	0.8503
5.83792	0.7658
5.87782	0.6152
5.91771	0.1668
5.9576	0.0842
5.9975	0.0289
6.03739	0.3885
6.07728	0.6428
6.11718	0.7432
6.15707	0.771
6.19697	0.757
6.23686	0.6266
6.27675	0.508
6.31665	0.3783
6.35654	0.2358
6.39644	0.6041
6.43633	0.7624
6.47622	0.8209
6.51612	0.8327
6.55601	0.8446
6.59591	0.8358
6.6358	0.8168
6.67569	0.7005
6.71559	0.4096
6.75548	0.3026
6.79538	0.5532
6.83527	0.7123
6.87516	0.6847
6.91506	0.4952
6.95495	0.3433
6.99484	0.5215
7.03474	0.7605
7.07463	0.8083
7.11453	0.823
7.15442	0.83
7.19431	0.8253
7.23421	0.766
7.2741	0.6542
7.314	0.6672
7.35389	0.6115
7.39378	0.547
7.43368	0.5656
7.47357	0.5871
7.51347	0.5994
7.55336	0.565
7.59325	0.6313
7.63315	0.678
7.67304	0.6756
7.71293	0.6397
7.75283	0.6815
7.79272	0.6672
7.83262	0.5049
7.87251	0.47
7.9124	0.5329
7.9523	0.5109
7.99219	0.5828
8.03209	0.6432
8.07198	0.6315
8.11187	0.5701
8.15177	0.4944
8.19166	0.4638
8.23156	0.461
8.27145	0.46
8.31134	0.461
8.35124	0.4916
8.39113	0.602
8.43103	0.7328
8.47092	0.7503
8.51081	0.7282
8.55071	0.7616
8.5906	0.828
8.63049	0.846
8.67039	0.8082
8.71028	0.8356
8.75018	0.868
8.79007	0.8726
8.82996	0.876
8.86986	0.8721
8.90975	0.8525
8.94965	0.7834
8.98954	0.7234
9.02943	0.6599
9.06933	0.6853
9.10922	0.738
9.14912	0.7452
9.18901	0.758
9.2289	0.7449
9.2688	0.6438
9.30869	0.6433
9.34859	0.7564
9.38848	0.7464
9.42837	0.6796
9.46827	0.5425
9.50816	0.532
9.54805	0.6285
9.58795	0.7042
9.62784	0.7229
9.66774	0.6187
9.70763	0.6004
9.74752	0.6775
9.78742	0.7454
9.82731	0.7714
9.86721	0.793
9.9071	0.793
9.94699	0.7901
9.98689	0.7594
10.0268	0.743
10.0667	0.74
10.1066	0.738
10.1465	0.6036
10.1864	0.4038
10.2263	0.3216
10.2661	0.5023
10.306	0.5872
10.3459	0.6278
10.3858	0.7032
10.4257	0.7477
10.4656	0.758
10.5055	0.7535
10.5454	0.738
10.5853	0.736
10.6252	0.7364
10.6651	0.741
10.705	0.726
10.7449	0.7294
10.7848	0.7448
10.8247	0.7527
10.8646	0.7596
10.9044	0.761
10.9443	0.7536
10.9842	0.751
11.0241	0.7548
11.064	0.7735
11.1039	0.7891
11.1438	0.7945
11.1837	0.7941
11.2236	0.791
11.2635	0.791
11.3034	0.7847
11.3433	0.788
11.3832	0.793
11.4231	0.796
11.463	0.796
11.5029	0.795
11.5428	0.7901
11.5826	0.786
11.6225	0.7572
11.6624	0.7413
11.7023	0.725
11.7422	0.7519
11.7821	0.7814
11.822	0.7954
11.8619	0.801
11.9018	0.805
11.9417	0.8007
11.9816	0.793
12.0215	0.7825
12.0614	0.764
12.1013	0.74
12.1412	0.74
12.1811	0.746
12.2209	0.7549
12.2608	0.765
12.3007	0.7709
12.3406	0.7684
12.3805	0.768
12.4204	0.765
12.4603	0.763
12.5002	0.7566
12.5401	0.7399
12.58	0.7018
12.6199	0.6907
12.6598	0.6857
12.6997	0.678
12.7396	0.6708
12.7795	0.666
12.8194	0.665
12.8592	0.6628
12.8991	0.656
12.939	0.655
12.9789	0.655
13.0188	0.655
13.0587	0.655
13.0986	0.6461
13.1385	0.64
13.1784	0.638
13.2183	0.64
13.2582	0.64
13.2981	0.638
13.338	0.6356
13.3779	0.628
13.4178	0.6189
13.4577	0.615
13.4976	0.61
13.5374	0.603
13.5773	0.6009
13.6172	0.5962
13.6571	0.596
13.697	0.5934
13.7369	0.588
13.7768	0.583
13.8167	0.58
13.8566	0.5767
13.8965	0.5662
13.9364	0.556
13.9763	0.556
14.0162	0.556
14.0561	0.556
14.096	0.558
14.1359	0.558
14.1757	0.5554
14.2156	0.5409
14.2555	0.5108
14.2954	0.4354
14.3353	0.3711
14.3752	0.3266
14.4151	0.3465
14.455	0.4253
14.4949	0.519
14.5348	0.5602
14.5747	0.5893
14.6146	0.6106
14.6545	0.6332
14.6944	0.6421
14.7343	0.646
14.7742	0.6466
14.8141	0.65
14.8539	0.65
14.8938	0.65
14.9337	0.65
14.9736	0.648
15.0135	0.65
15.0534	0.65
15.0933	0.65
15.1332	0.6404
15.1731	0.628
15.213	0.6324
15.2529	0.6572
15.2928	0.6965
15.3327	0.7147
15.3726	0.718
15.4125	0.72
15.4524	0.721
