Infrared Spectrum: P-METHOXY CARBANILIC ACID, n-NONYL ESTER
Formula: C17 H27 N O3
CAS: 94907-38-7
State: SOLID (2.0 mg / 200 mg KBr)
Class: COBLENTZ
Instrument: Not specified, most likely a grating spectrometer.
Sampling: TRANSMISSION
Resolution: 4
Origin: CITRUS EXPERIMENT STATION, UNIVERSITY OF FLORIDA (G. EDWARDS)
MICROMETERS	TRANSMITTANCE
2.046	0.926
2.07915	0.928
2.11229	0.93
2.14544	0.933
2.17858	0.93
2.21173	0.924
2.24488	0.924
2.27802	0.925
2.31117	0.928
2.34432	0.928
2.37746	0.929
2.41061	0.932
2.44375	0.933
2.4769	0.933
2.51005	0.934
2.54319	0.934
2.57634	0.94
2.60949	0.94
2.64263	0.946
2.67578	0.934
2.70892	0.932
2.74207	0.928
2.77522	0.921
2.80836	0.912
2.84151	0.91
2.87466	0.894
2.9078	0.86
2.94095	0.813
2.97409	0.488
3.00724	0.589
3.04039	0.797
3.07353	0.88
3.10668	0.92
3.13983	0.932
3.17297	0.925
3.20612	0.921
3.23926	0.89
3.27241	0.886
3.30556	0.845
3.3387	0.708
3.37185	0.43
3.405	0.353
3.43814	0.597
3.47129	0.47
3.50443	0.699
3.53758	0.873
3.57073	0.896
3.60387	0.913
3.63702	0.93
3.67017	0.938
3.70331	0.938
3.73646	0.941
3.7696	0.942
3.80275	0.942
3.8359	0.942
3.86904	0.949
3.90219	0.95
3.93534	0.95
3.96848	0.956
4.00163	0.952
4.03477	0.95
4.06792	0.958
4.10107	0.958
4.13421	0.956
4.16736	0.952
4.20051	0.946
4.23365	0.945
4.2668	0.946
4.29994	0.958
4.33309	0.958
4.36624	0.957
4.39938	0.958
4.43253	0.96
4.46568	0.957
4.49882	0.957
4.53197	0.957
4.56511	0.957
4.59826	0.962
4.63141	0.962
4.66455	0.962
4.6977	0.961
4.73085	0.958
4.76399	0.957
4.79714	0.953
4.83028	0.949
4.86343	0.953
4.89658	0.953
4.92972	0.95
4.96287	0.953
4.99602	0.956
5.02916	0.957
5.06231	0.962
5.09545	0.958
5.1286	0.96
5.16175	0.957
5.19489	0.96
5.22804	0.954
5.26119	0.954
5.29433	0.95
5.32748	0.933
5.36062	0.941
5.39377	0.94
5.42692	0.937
5.46006	0.93
5.49321	0.93
5.52636	0.926
5.5595	0.922
5.59265	0.914
5.62579	0.908
5.65894	0.89
5.69209	0.851
5.72523	0.803
5.75838	0.756
5.79153	0.675
5.82467	0.464
5.85782	0.183
5.89096	0.211
5.92411	0.571
5.95726	0.714
5.9904	0.759
6.02355	0.771
6.0567	0.832
6.08984	0.841
6.12299	0.831
6.15613	0.763
6.18928	0.78
6.22243	0.683
6.25557	0.646
6.28872	0.832
6.32187	0.836
6.35501	0.776
6.38816	0.634
6.4213	0.303
6.45445	0.127
6.4876	0.142
6.52074	0.252
6.55389	0.311
6.58704	0.323
6.62018	0.647
6.65333	0.734
6.68647	0.728
6.71962	0.605
6.75277	0.595
6.78591	0.517
6.81906	0.642
6.85221	0.728
6.88535	0.731
6.9185	0.723
6.95164	0.742
6.98479	0.78
7.01794	0.647
7.05108	0.402
7.08423	0.632
7.11738	0.803
7.15052	0.832
7.18367	0.795
7.21681	0.832
7.24996	0.817
7.28311	0.832
7.31625	0.839
7.3494	0.832
7.38255	0.811
7.41569	0.795
7.44884	0.722
7.48198	0.63
7.51513	0.694
7.54828	0.674
7.58142	0.695
7.61457	0.672
7.64772	0.613
7.68086	0.712
7.71401	0.74
7.74715	0.703
7.7803	0.683
7.81345	0.687
7.84659	0.613
7.87974	0.453
7.91289	0.219
7.94603	0.203
7.97918	0.259
8.01232	0.071
8.04547	0.03
8.07862	0.034
8.11176	0.121
8.14491	0.284
8.17806	0.438
8.2112	0.578
8.24435	0.615
8.27749	0.662
8.31064	0.747
8.34379	0.784
8.37693	0.803
8.41008	0.796
8.44323	0.591
8.47637	0.486
8.50952	0.553
8.54266	0.736
8.57581	0.823
8.60896	0.861
8.6421	0.885
8.67525	0.88
8.7084	0.89
8.74154	0.894
8.77469	0.886
8.80783	0.872
8.84098	0.86
8.87413	0.864
8.90727	0.873
8.94042	0.861
8.97357	0.821
9.00671	0.674
9.03986	0.765
9.073	0.804
9.10615	0.763
9.1393	0.652
9.17244	0.432
9.20559	0.529
9.23874	0.646
9.27188	0.663
9.30503	0.481
9.33817	0.432
9.37132	0.664
9.40447	0.703
9.43761	0.704
9.47076	0.783
9.50391	0.801
9.53705	0.756
9.5702	0.656
9.60334	0.497
9.63649	0.365
9.66964	0.442
9.70278	0.573
9.73593	0.652
9.76908	0.761
9.80222	0.813
9.83537	0.851
9.86851	0.817
9.90166	0.849
9.93481	0.865
9.96795	0.882
10.0011	0.909
10.0342	0.913
10.0674	0.914
10.1005	0.92
10.1337	0.93
10.1668	0.932
10.2	0.933
10.2331	0.93
10.2663	0.918
10.2994	0.913
10.3326	0.921
10.3657	0.93
10.3989	0.916
10.432	0.924
10.4651	0.933
10.4983	0.937
10.5314	0.937
10.5646	0.944
10.5977	0.946
10.6309	0.946
10.664	0.946
10.6972	0.944
10.7303	0.945
10.7635	0.946
10.7966	0.942
10.8298	0.94
10.8629	0.944
10.896	0.946
10.9292	0.942
10.9623	0.945
10.9955	0.949
11.0286	0.952
11.0618	0.95
11.0949	0.946
11.1281	0.945
11.1612	0.946
11.1944	0.945
11.2275	0.936
11.2607	0.92
11.2938	0.925
11.3269	0.944
11.3601	0.95
11.3932	0.946
11.4264	0.944
11.4595	0.946
11.4927	0.945
11.5258	0.937
11.559	0.93
11.5921	0.921
11.6253	0.93
11.6584	0.936
11.6916	0.938
11.7247	0.936
11.7579	0.932
11.791	0.93
11.8241	0.934
11.8573	0.937
11.8904	0.929
11.9236	0.917
11.9567	0.901
11.9899	0.873
12.023	0.845
12.0562	0.8
12.0893	0.688
12.1225	0.482
12.1556	0.243
12.1888	0.324
12.2219	0.656
12.255	0.815
12.2882	0.835
12.3213	0.817
12.3545	0.855
12.3876	0.9
12.4208	0.921
12.4539	0.924
12.4871	0.92
12.5202	0.918
12.5534	0.917
12.5865	0.92
12.6197	0.912
12.6528	0.901
12.6859	0.869
12.7191	0.831
12.7522	0.78
12.7854	0.687
12.8185	0.638
12.8517	0.65
12.8848	0.726
12.918	0.784
12.9511	0.767
12.9843	0.748
13.0174	0.789
13.0506	0.855
13.0837	0.876
13.1168	0.89
13.15	0.894
13.1831	0.902
13.2163	0.912
13.2494	0.916
13.2826	0.92
13.3157	0.904
13.3489	0.882
13.382	0.867
13.4152	0.852
13.4483	0.832
13.4815	0.8
13.5146	0.726
13.5477	0.719
13.5809	0.743
13.614	0.781
13.6472	0.783
13.6803	0.772
13.7135	0.731
13.7466	0.692
13.7798	0.726
13.8129	0.781
13.8461	0.825
13.8792	0.851
13.9124	0.875
13.9455	0.884
13.9786	0.889
14.0118	0.886
14.0449	0.882
14.0781	0.88
14.1112	0.871
14.1444	0.869
14.1775	0.871
14.2107	0.877
14.2438	0.867
14.277	0.863
14.3101	0.86
14.3433	0.851
14.3764	0.841
14.4096	0.836
14.4427	0.832
14.4758	0.829
14.509	0.823
14.5421	0.807
14.5753	0.803
14.6084	0.792
14.6416	0.783
14.6747	0.78
14.7079	0.775
14.741	0.761
14.7742	0.759
14.8073	0.748
14.8405	0.731
14.8736	0.719
14.9067	0.706
14.9399	0.678
14.973	0.674
15.0062	0.679
