Infrared Spectrum: P-PHENYLAZO CARBANILIC ACID, n-HEXYL ESTER
Formula: C19 H23 N3 O2
CAS: 94915-64-7
State: SOLID (1.7 mg / 100 mg KBr)
Melting point: 106-107 C
Class: COBLENTZ
Instrument: Not specified, most likely a grating spectrometer.
Sampling: TRANSMISSION
Resolution: 4
Origin: CITRUS EXPERIMENT STATION, UNIVERSITY OF FLORIDA (G. EDWARDS)
MICROMETERS	TRANSMITTANCE
2.04	0.912
2.07308	0.914
2.10616	0.921
2.13924	0.922
2.17233	0.921
2.20541	0.92
2.23849	0.922
2.27157	0.925
2.30465	0.93
2.33773	0.929
2.37082	0.93
2.4039	0.932
2.43698	0.937
2.47006	0.932
2.50314	0.942
2.53622	0.942
2.56931	0.942
2.60239	0.945
2.63547	0.945
2.66855	0.946
2.70163	0.946
2.73471	0.948
2.7678	0.969
2.80088	0.972
2.83396	0.981
2.86704	0.988
2.90012	0.981
2.9332	0.926
2.96629	0.701
2.99937	0.841
3.03245	0.936
3.06553	0.96
3.09861	0.964
3.13169	0.961
3.16478	0.964
3.19786	0.962
3.23094	0.94
3.26402	0.917
3.2971	0.933
3.33018	0.929
3.36327	0.748
3.39635	0.737
3.42943	0.826
3.46251	0.797
3.49559	0.853
3.52867	0.929
3.56176	0.941
3.59484	0.942
3.62792	0.944
3.661	0.945
3.69408	0.949
3.72716	0.953
3.76024	0.953
3.79333	0.949
3.82641	0.953
3.85949	0.952
3.89257	0.952
3.92565	0.952
3.95873	0.954
3.99182	0.956
4.0249	0.957
4.05798	0.952
4.09106	0.956
4.12414	0.957
4.15722	0.956
4.19031	0.952
4.22339	0.962
4.25647	0.96
4.28955	0.96
4.32263	0.958
4.35571	0.958
4.3888	0.952
4.42188	0.956
4.45496	0.952
4.48804	0.962
4.52112	0.96
4.5542	0.957
4.58729	0.957
4.62037	0.96
4.65345	0.961
4.68653	0.96
4.71961	0.96
4.75269	0.96
4.78578	0.957
4.81886	0.956
4.85194	0.953
4.88502	0.954
4.9181	0.954
4.95118	0.952
4.98427	0.958
5.01735	0.956
5.05043	0.95
5.08351	0.948
5.11659	0.954
5.14967	0.952
5.18276	0.94
5.21584	0.949
5.24892	0.948
5.282	0.95
5.31508	0.948
5.34816	0.953
5.38124	0.952
5.41433	0.95
5.44741	0.949
5.48049	0.946
5.51357	0.94
5.54665	0.937
5.57973	0.937
5.61282	0.934
5.6459	0.936
5.67898	0.92
5.71206	0.885
5.74514	0.84
5.77822	0.797
5.81131	0.486
5.84439	0.402
5.87747	0.651
5.91055	0.792
5.94363	0.87
5.97671	0.9
6.0098	0.909
6.04288	0.92
6.07596	0.922
6.10904	0.906
6.14212	0.86
6.1752	0.701
6.20829	0.456
6.24137	0.621
6.27445	0.762
6.30753	0.845
6.34061	0.849
6.37369	0.784
6.40678	0.486
6.43986	0.346
6.47294	0.432
6.50602	0.577
6.5391	0.743
6.57218	0.792
6.60527	0.806
6.63835	0.822
6.67143	0.846
6.70451	0.845
6.73759	0.822
6.77067	0.723
6.80376	0.659
6.83684	0.741
6.86992	0.821
6.903	0.802
6.93608	0.609
6.96916	0.77
7.00224	0.816
7.03533	0.703
7.06841	0.724
7.10149	0.83
7.13457	0.854
7.16765	0.842
7.20073	0.83
7.23382	0.801
7.2669	0.8
7.29998	0.837
7.33306	0.861
7.36614	0.861
7.39922	0.862
7.43231	0.845
7.46539	0.812
7.49847	0.747
7.53155	0.695
7.56463	0.659
7.59771	0.599
7.6308	0.631
7.66388	0.719
7.69696	0.798
7.73004	0.83
7.76312	0.836
7.7962	0.825
7.82929	0.805
7.86237	0.8
7.89545	0.758
7.92853	0.672
7.96161	0.616
7.99469	0.533
8.02778	0.415
8.06086	0.303
8.09394	0.528
8.12702	0.547
8.1601	0.684
8.19318	0.739
8.22627	0.778
8.25935	0.79
8.29243	0.801
8.32551	0.82
8.35859	0.836
8.39167	0.798
8.42476	0.765
8.45784	0.822
8.49092	0.849
8.524	0.842
8.55708	0.84
8.59016	0.834
8.62324	0.76
8.65633	0.701
8.68941	0.699
8.72249	0.704
8.75557	0.691
8.78865	0.786
8.82173	0.808
8.85482	0.81
8.8879	0.841
8.92098	0.849
8.95406	0.85
8.98714	0.842
9.02022	0.78
9.05331	0.789
9.08639	0.849
9.11947	0.86
9.15255	0.85
9.18563	0.845
9.21871	0.802
9.2518	0.676
9.28488	0.589
9.31796	0.712
9.35104	0.719
9.38412	0.733
9.4172	0.765
9.45029	0.824
9.48337	0.83
9.51645	0.801
9.54953	0.826
9.58261	0.841
9.61569	0.821
9.64878	0.801
9.68186	0.84
9.71494	0.86
9.74802	0.872
9.7811	0.844
9.81418	0.785
9.84727	0.842
9.88035	0.826
9.91343	0.841
9.94651	0.856
9.97959	0.861
10.0127	0.869
10.0458	0.87
10.0788	0.869
10.1119	0.873
10.145	0.869
10.1781	0.873
10.2112	0.872
10.2442	0.86
10.2773	0.853
10.3104	0.828
10.3435	0.833
10.3766	0.85
10.4097	0.865
10.4427	0.869
10.4758	0.874
10.5089	0.874
10.542	0.87
10.5751	0.874
10.6081	0.872
10.6412	0.874
10.6743	0.878
10.7074	0.877
10.7405	0.876
10.7736	0.877
10.8066	0.87
10.8397	0.852
10.8728	0.801
10.9059	0.821
10.939	0.87
10.972	0.874
11.0051	0.872
11.0382	0.877
11.0713	0.884
11.1044	0.88
11.1374	0.878
11.1705	0.869
11.2036	0.862
11.2367	0.869
11.2698	0.87
11.3029	0.872
11.3359	0.873
11.369	0.872
11.4021	0.878
11.4352	0.874
11.4683	0.874
11.5013	0.87
11.5344	0.869
11.5675	0.86
11.6006	0.85
11.6337	0.84
11.6668	0.822
11.6998	0.816
11.7329	0.794
11.766	0.769
11.7991	0.709
11.8322	0.653
11.8652	0.691
11.8983	0.77
11.9314	0.8
11.9645	0.769
11.9976	0.735
12.0307	0.776
12.0637	0.829
12.0968	0.84
12.1299	0.86
12.163	0.864
12.1961	0.87
12.2291	0.861
12.2622	0.869
12.2953	0.864
12.3284	0.86
12.3615	0.85
12.3946	0.858
12.4276	0.868
12.4607	0.873
12.4938	0.878
12.5269	0.878
12.56	0.878
12.593	0.873
12.6261	0.88
12.6592	0.877
12.6923	0.877
12.7254	0.872
12.7584	0.88
12.7915	0.876
12.8246	0.872
12.8577	0.872
12.8908	0.866
12.9239	0.844
12.9569	0.813
12.99	0.786
13.0231	0.782
13.0562	0.78
13.0893	0.723
13.1223	0.609
13.1554	0.643
13.1885	0.75
13.2216	0.809
13.2547	0.826
13.2878	0.826
13.3208	0.842
13.3539	0.85
13.387	0.865
13.4201	0.878
13.4532	0.885
13.4862	0.894
13.5193	0.898
13.5524	0.898
13.5855	0.89
13.6186	0.885
13.6517	0.876
13.6847	0.872
13.7178	0.853
13.7509	0.83
13.784	0.825
13.8171	0.849
13.8501	0.869
13.8832	0.869
13.9163	0.834
13.9494	0.804
13.9825	0.812
14.0156	0.856
14.0486	0.889
14.0817	0.906
14.1148	0.913
14.1479	0.916
14.181	0.918
14.214	0.917
14.2471	0.916
14.2802	0.92
14.3133	0.916
14.3464	0.921
14.3794	0.917
14.4125	0.918
14.4456	0.917
14.4787	0.9
14.5118	0.873
14.5449	0.821
14.5779	0.74
14.611	0.684
14.6441	0.689
14.6772	0.75
14.7103	0.825
14.7433	0.886
14.7764	0.912
14.8095	0.926
14.8426	0.933
14.8757	0.926
14.9088	0.916
14.9418	0.898
14.9749	0.92
15.008	0.933
