Infrared Spectrum: 1-METHYL-3-(Beta-MORPHOLINOETHYL)-3-PHENYLOXINDOLE
Formula: C21 H24 N2 O2
CAS: 94916-82-2
State: SOLUTION (7% IN CHCl3)
Class: COBLENTZ
Instrument: PERKIN-ELMER
Sampling: TRANSMISSION
Path length: 0.01 CM CELL
Resolution: 4
Origin: ABBOTT LABORATORIES - WASHBURN
MICROMETERS	TRANSMITTANCE
2.522	0.836
2.55866	0.833
2.59531	0.833
2.63197	0.838
2.66862	0.842
2.70528	0.844
2.74193	0.842
2.77859	0.842
2.81524	0.842
2.8519	0.84
2.88855	0.833
2.92521	0.829
2.96186	0.825
2.99852	0.8269
3.03517	0.831
3.07183	0.833
3.10848	0.8339
3.14514	0.836
3.18179	0.8329
3.21845	0.834
3.2551	0.8049
3.29176	0.77
3.32841	0.6528
3.36507	0.6085
3.40172	0.5721
3.43838	0.5739
3.47503	0.614
3.51169	0.6159
3.54834	0.5752
3.585	0.6116
3.62165	0.6764
3.65831	0.7314
3.69496	0.768
3.73162	0.788
3.76827	0.7962
3.80493	0.814
3.84158	0.8199
3.87824	0.8309
3.91489	0.831
3.95155	0.8329
3.9882	0.834
4.02486	0.831
4.06151	0.829
4.09817	0.829
4.13482	0.8329
4.17148	0.8439
4.20814	0.86
4.24479	0.858
4.28145	0.855
4.3181	0.845
4.35476	0.8421
4.39141	0.844
4.42807	0.844
4.46472	0.849
4.50138	0.851
4.53803	0.851
4.57469	0.849
4.61134	0.847
4.648	0.851
4.68465	0.858
4.72131	0.856
4.75796	0.8509
4.79462	0.845
4.83127	0.8529
4.86793	0.851
4.90458	0.855
4.94124	0.855
4.97789	0.858
5.01455	0.858
5.0512	0.8511
5.08786	0.8402
5.12451	0.834
5.16117	0.833
5.19782	0.8357
5.23448	0.8417
5.27113	0.84
5.30779	0.833
5.34444	0.8338
5.3811	0.8396
5.41775	0.844
5.45441	0.847
5.49106	0.8443
5.52772	0.84
5.56437	0.838
5.60103	0.834
5.63768	0.831
5.67434	0.829
5.71099	0.8224
5.74765	0.7934
5.7843	0.7105
5.82096	0.2458
5.85762	0.0974
5.89427	0.1077
5.93093	0.3688
5.96758	0.6214
6.00424	0.7232
6.04089	0.7709
6.07755	0.7839
6.1142	0.788
6.15086	0.7725
6.18751	0.5417
6.22417	0.2595
6.26082	0.5669
6.29748	0.7252
6.33413	0.7747
6.37079	0.8094
6.40744	0.8208
6.4441	0.8275
6.48075	0.8407
6.51741	0.849
6.55406	0.849
6.59072	0.8506
6.62737	0.8285
6.66403	0.7444
6.70068	0.4362
6.73734	0.3746
6.77399	0.587
6.81065	0.4301
6.8473	0.3657
6.88396	0.484
6.92061	0.565
6.95727	0.5374
6.99392	0.6481
7.03058	0.7561
7.06723	0.7193
7.10389	0.7582
7.14054	0.777
7.1772	0.7573
7.21385	0.7464
7.25051	0.6996
7.28716	0.4699
7.32382	0.4005
7.36047	0.5734
7.39713	0.5023
7.43378	0.3779
7.47044	0.4595
7.5071	0.5452
7.54375	0.5973
7.58041	0.6767
7.61706	0.7071
7.65372	0.7247
7.69037	0.6921
7.72703	0.5999
7.76368	0.6125
7.80034	0.6664
7.83699	0.627
7.87365	0.6193
7.9103	0.6894
7.94696	0.646
7.98361	0.602
8.02027	0.6022
8.05692	0.6172
8.09358	0.5825
8.13023	0.586
8.16689	0.6317
8.20354	0.6587
8.2402	0.6565
8.27685	0.666
8.31351	0.667
8.35016	0.7066
8.38682	0.8269
8.42347	0.844
8.46013	0.8245
8.49678	0.8027
8.53344	0.7956
8.57009	0.7636
8.60675	0.7107
8.6434	0.693
8.68006	0.6933
8.71671	0.6559
8.75337	0.5771
8.79002	0.5326
8.82668	0.581
8.86333	0.5339
8.89999	0.4401
8.93664	0.4031
8.9733	0.2757
9.00995	0.1912
9.04661	0.4085
9.08326	0.561
9.11992	0.622
9.15658	0.6225
9.19323	0.5771
9.22989	0.5754
9.26654	0.6592
9.3032	0.62
9.33985	0.6829
9.37651	0.6738
9.41316	0.7143
9.44982	0.7437
9.48647	0.746
9.52313	0.748
9.55978	0.7733
9.59644	0.7843
9.63309	0.7702
9.66975	0.6741
9.7064	0.5965
9.74306	0.6708
9.77971	0.6993
9.81637	0.5679
9.85302	0.6253
9.88968	0.633
9.92633	0.6261
9.96299	0.6422
9.99964	0.7144
10.0363	0.7604
10.073	0.787
10.1096	0.8027
10.1463	0.8098
10.1829	0.816
10.2196	0.816
10.2562	0.8165
10.2929	0.818
10.3295	0.7996
10.3662	0.7548
10.4028	0.6991
10.4395	0.7013
10.4762	0.7646
10.5128	0.803
10.5495	0.8027
10.5861	0.7976
10.6228	0.7961
10.6594	0.805
10.6961	0.8111
10.7327	0.8291
10.7694	0.842
10.8061	0.844
10.8427	0.834
10.8794	0.8119
10.916	0.7793
10.9527	0.7769
10.9893	0.7592
11.026	0.744
11.0626	0.754
11.0993	0.761
11.136	0.7515
11.1726	0.746
11.2093	0.7537
11.2459	0.7674
11.2826	0.7845
11.3192	0.785
11.3559	0.787
11.3925	0.788
11.4292	0.796
11.4658	0.7947
11.5025	0.7748
11.5392	0.7276
11.5758	0.6607
11.6125	0.6412
11.6491	0.6669
11.6858	0.679
11.7224	0.6544
11.7591	0.6726
11.7957	0.7349
11.8324	0.7809
11.8691	0.8148
11.9057	0.8298
11.9424	0.8334
11.979	0.8334
12.0157	0.8407
12.0523	0.8536
12.089	0.864
12.1256	0.869
12.1623	0.869
12.1989	0.871
12.2356	0.8717
12.2723	0.875
12.3089	0.877
12.3456	0.878
12.3822	0.88
12.4189	0.884
12.4555	0.888
12.4922	0.889
12.5288	0.893
12.5655	0.904
12.6022	0.9043
12.6388	0.904
12.6755	0.904
12.7121	0.904
12.7488	0.9039
12.7854	0.904
12.8221	0.904
12.8587	0.904
12.8954	0.904
12.9321	0.904
12.9687	0.906
13.0054	0.9062
13.042	0.904
13.0787	0.902
13.1153	0.902
13.152	0.904
13.1886	0.904
13.2253	0.906
13.2619	0.906
13.2986	0.906
13.3353	0.906
13.3719	0.908
13.4086	0.906
13.4452	0.906
13.4819	0.9066
13.5185	0.906
13.5552	0.906
13.5918	0.906
13.6285	0.906
13.6652	0.906
13.7018	0.906
13.7385	0.906
13.7751	0.906
13.8118	0.91
13.8484	0.9115
13.8851	0.917
13.9217	0.917
13.9584	0.9178
13.995	0.919
14.0317	0.921
14.0684	0.9214
14.105	0.922
14.1417	0.924
14.1783	0.926
14.215	0.926
14.2516	0.9266
14.2883	0.928
14.3249	0.93
14.3616	0.93
14.3983	0.932
14.4349	0.933
14.4716	0.935
14.5082	0.933
14.5449	0.933
14.5815	0.933
14.6182	0.933
14.6548	0.932
14.6915	0.933
14.7282	0.933
14.7648	0.935
14.8015	0.9331
14.8381	0.937
14.8748	0.937
14.9114	0.935
14.9481	0.933
14.9847	0.933
