Infrared Spectrum: P-PHENYLAZO CARBANILIC ACID, n-HEPTYL ESTER
Formula: C20 H25 N3 O2
CAS: 94913-08-3
State: SOLID (1.8 mg / 100 mg KBr)
Melting point: 110-110.5 C
Class: COBLENTZ
Instrument: Not specified, most likely a grating spectrometer.
Sampling: TRANSMISSION
Resolution: 4
Origin: CITRUS EXPERIMENT STATION, UNIVERSITY OF FLORIDA (G. EDWARDS)
MICROMETERS	TRANSMITTANCE
2.033	0.99
2.06618	0.992
2.09935	0.996
2.13253	0.996
2.16571	0.998
2.19888	1
2.23206	1
2.26524	0.996
2.29842	1
2.33159	1
2.36477	1.002
2.39795	1
2.43112	1.003
2.4643	1.006
2.49748	1.006
2.53065	1.007
2.56383	1.014
2.59701	1.019
2.63018	1.023
2.66336	1.027
2.69654	1.037
2.72972	1.035
2.76289	1.041
2.79607	1.042
2.82925	1.042
2.86242	1.039
2.8956	1.009
2.92878	0.981
2.96195	0.713
2.99513	0.853
3.02831	0.986
3.06148	1
3.09466	1.014
3.12784	1.013
3.16101	1.011
3.19419	1.005
3.22737	0.984
3.26055	0.964
3.29372	0.992
3.3269	0.984
3.36008	0.737
3.39325	0.651
3.42643	0.798
3.45961	0.765
3.49278	0.774
3.52596	0.968
3.55914	0.981
3.59231	0.981
3.62549	0.977
3.65867	0.99
3.69185	0.993
3.72502	0.993
3.7582	0.993
3.79138	0.992
3.82455	0.997
3.85773	0.992
3.89091	0.997
3.92408	0.997
3.95726	0.996
3.99044	1
4.02361	0.998
4.05679	0.992
4.08997	1
4.12315	1.001
4.15632	0.997
4.1895	0.982
4.22268	0.99
4.25585	0.996
4.28903	0.996
4.32221	0.996
4.35538	0.997
4.38856	0.993
4.42174	0.996
4.45491	1
4.48809	1
4.52127	0.997
4.55444	0.994
4.58762	0.998
4.6208	0.998
4.65398	0.998
4.68715	0.998
4.72033	0.996
4.75351	0.996
4.78668	0.997
4.81986	0.997
4.85304	0.992
4.88621	0.994
4.91939	0.992
4.95257	0.993
4.98574	0.993
5.01892	0.993
5.0521	0.992
5.08528	0.985
5.11845	0.988
5.15163	0.985
5.18481	0.973
5.21798	0.98
5.25116	0.98
5.28434	0.985
5.31751	0.992
5.35069	0.993
5.38387	0.993
5.41704	0.99
5.45022	0.977
5.4834	0.982
5.51658	0.976
5.54975	0.974
5.58293	0.969
5.61611	0.966
5.64928	0.96
5.68246	0.952
5.71564	0.922
5.74881	0.848
5.78199	0.773
5.81517	0.275
5.84834	0.434
5.88152	0.672
5.9147	0.849
5.94788	0.913
5.98105	0.926
6.01423	0.94
6.04741	0.934
6.08058	0.934
6.11376	0.92
6.14694	0.83
6.18011	0.571
6.21329	0.372
6.24647	0.699
6.27964	0.822
6.31282	0.854
6.346	0.822
6.37917	0.677
6.41235	0.406
6.44553	0.307
6.47871	0.454
6.51188	0.641
6.54506	0.81
6.57824	0.838
6.61141	0.85
6.64459	0.874
6.67777	0.893
6.71094	0.894
6.74412	0.82
6.7773	0.709
6.81047	0.648
6.84365	0.824
6.87683	0.825
6.91001	0.721
6.94318	0.693
6.97636	0.864
7.00954	0.825
7.04271	0.653
7.07589	0.774
7.10907	0.886
7.14224	0.882
7.17542	0.87
7.2086	0.86
7.24177	0.813
7.27495	0.813
7.30813	0.874
7.34131	0.901
7.37448	0.893
7.40766	0.888
7.44084	0.852
7.47401	0.801
7.50719	0.711
7.54037	0.713
7.57354	0.688
7.60672	0.572
7.6399	0.647
7.67307	0.729
7.70625	0.85
7.73943	0.88
7.7726	0.87
7.80578	0.828
7.83896	0.812
7.87214	0.84
7.90531	0.784
7.93849	0.685
7.97167	0.62
8.00484	0.512
8.03802	0.279
8.0712	0.311
8.10437	0.576
8.13755	0.707
8.17073	0.699
8.2039	0.797
8.23708	0.84
8.27026	0.857
8.30344	0.864
8.33661	0.881
8.36979	0.881
8.40297	0.825
8.43614	0.857
8.46932	0.904
8.5025	0.91
8.53567	0.91
8.56885	0.916
8.60203	0.865
8.6352	0.723
8.66838	0.729
8.70156	0.695
8.73474	0.691
8.76791	0.756
8.80109	0.845
8.83427	0.873
8.86744	0.904
8.90062	0.921
8.9338	0.918
8.96697	0.914
9.00015	0.866
9.03333	0.789
9.0665	0.858
9.09968	0.904
9.13286	0.892
9.16604	0.836
9.19921	0.688
9.23239	0.669
9.26557	0.805
9.29874	0.87
9.33192	0.846
9.3651	0.758
9.39827	0.708
9.43145	0.7
9.46463	0.822
9.4978	0.884
9.53098	0.889
9.56416	0.821
9.59733	0.844
9.63051	0.91
9.66369	0.922
9.69687	0.921
9.73004	0.922
9.76322	0.92
9.7964	0.834
9.82957	0.892
9.86275	0.901
9.89593	0.897
9.9291	0.92
9.96228	0.921
9.99546	0.924
10.0286	0.928
10.0618	0.929
10.095	0.936
10.1282	0.94
10.1613	0.934
10.1945	0.929
10.2277	0.926
10.2609	0.913
10.294	0.882
10.3272	0.9
10.3604	0.917
10.3936	0.926
10.4268	0.921
10.4599	0.934
10.4931	0.933
10.5263	0.933
10.5595	0.936
10.5926	0.934
10.6258	0.938
10.659	0.937
10.6922	0.941
10.7253	0.937
10.7585	0.93
10.7917	0.924
10.8249	0.917
10.8581	0.885
10.8912	0.848
10.9244	0.908
10.9576	0.929
10.9908	0.937
11.0239	0.937
11.0571	0.936
11.0903	0.934
11.1235	0.937
11.1566	0.93
11.1898	0.929
11.223	0.93
11.2562	0.932
11.2894	0.933
11.3225	0.941
11.3557	0.936
11.3889	0.933
11.4221	0.93
11.4552	0.932
11.4884	0.933
11.5216	0.925
11.5548	0.916
11.5879	0.909
11.6211	0.885
11.6543	0.872
11.6875	0.86
11.7207	0.842
11.7538	0.816
11.787	0.75
11.8202	0.647
11.8534	0.619
11.8865	0.735
11.9197	0.82
11.9529	0.802
11.9861	0.761
12.0192	0.745
12.0524	0.82
12.0856	0.866
12.1188	0.901
12.152	0.916
12.1851	0.918
12.2183	0.917
12.2515	0.918
12.2847	0.928
12.3178	0.91
12.351	0.906
12.3842	0.913
12.4174	0.922
12.4505	0.926
12.4837	0.93
12.5169	0.926
12.5501	0.918
12.5833	0.921
12.6164	0.925
12.6496	0.928
12.6828	0.926
12.716	0.924
12.7491	0.914
12.7823	0.916
12.8155	0.912
12.8487	0.908
12.8818	0.902
12.915	0.892
12.9482	0.865
12.9814	0.822
13.0146	0.748
13.0477	0.679
13.0809	0.572
13.1141	0.561
13.1473	0.711
13.1804	0.801
13.2136	0.83
13.2468	0.833
13.28	0.848
13.3131	0.89
13.3463	0.908
13.3795	0.916
13.4127	0.916
13.4459	0.921
13.479	0.921
13.5122	0.924
13.5454	0.924
13.5786	0.925
13.6117	0.921
13.6449	0.913
13.6781	0.904
13.7113	0.882
13.7444	0.844
13.7776	0.809
13.8108	0.809
13.844	0.849
13.8772	0.85
13.9103	0.814
13.9435	0.777
13.9767	0.79
14.0099	0.856
14.043	0.901
14.0762	0.906
14.1094	0.914
14.1426	0.913
14.1757	0.914
14.2089	0.912
14.2421	0.91
14.2753	0.91
14.3085	0.908
14.3416	0.902
14.3748	0.89
14.408	0.884
14.4412	0.857
14.4743	0.832
14.5075	0.76
14.5407	0.685
14.5739	0.605
14.607	0.62
14.6402	0.676
14.6734	0.761
14.7066	0.832
14.7398	0.86
14.7729	0.868
14.8061	0.872
14.8393	0.87
14.8725	0.862
14.9056	0.83
14.9388	0.804
14.972	0.83
