Infrared Spectrum: Estr-4-ene-16Beta-propionic acid, 17Beta-hydroxy-3-oxo-, Delta-lactone
Formula: C21 H28 O3
CAS: 94962-51-3
State: SOLUTION (7% CHCl3 FOR 2.5-12.5 MICRON) VS SOLVENT
Class: COBLENTZ
Instrument: PERKIN-ELMER 21 (GRATING)
Instrument parameters: FILTER AT ABOUT 10 MICRONS
Path length: 0.01 CM
Resolution: 2
Origin: ABBOTT LABORATORIES
1/CM	TRANSMITTANCE
799	1.0089
808	0.9889
817	0.9641
826	0.9253
835	0.8798
844	0.9767
853	0.922
862	0.8562
871	0.8134
880	0.6824
889	0.871
898	0.9152
907	0.8815
916	0.8893
925	0.8854
934	0.7217
943	0.8564
952	0.8339
961	0.6713
970	0.8637
979	0.8485
988	0.8354
997	0.8502
1006	0.752
1015	0.6081
1024	0.6805
1033	0.5736
1042	0.689
1051	0.675
1060	0.5043
1069	0.2757
1078	0.5053
1087	0.6618
1096	0.6223
1105	0.6505
1114	0.6534
1123	0.646
1132	0.4929
1141	0.5294
1150	0.65
1159	0.5544
1168	0.3181
1177	0.4917
1186	0.4287
1195	0.508
1204	0.4953
1213	0.4745
1222	0.446
1231	0.4855
1240	0.3604
1249	0.2328
1258	0.5373
1267	0.7654
1276	0.7979
1285	0.8018
1294	0.8434
1303	0.8001
1312	0.7037
1321	0.5029
1330	0.48
1339	0.6318
1348	0.5698
1357	0.5325
1366	0.6873
1375	0.6754
1384	0.7382
1393	0.7815
1402	0.7528
1411	0.6865
1420	0.7328
1429	0.7628
1438	0.5958
1447	0.6861
1456	0.742
1465	0.7956
1474	0.8968
1483	0.9067
1492	0.9182
1501	0.9302
1510	0.9316
1519	0.9297
1528	0.9243
1537	0.9172
1546	0.9083
1555	0.8995
1564	0.8895
1573	0.8735
1582	0.8422
1591	0.781
1600	0.6438
1609	0.5392
1618	0.619
1627	0.6026
1636	0.3367
1645	0.1027
1654	0.0763
1663	0.2334
1672	0.4263
1681	0.5048
1690	0.3544
1699	0.2025
1708	0.0754
1717	0.0926
1726	0.3033
1735	0.5401
1744	0.6346
1753	0.7763
1762	0.829
1771	0.8592
1780	0.8836
1789	0.8984
1798	0.9073
1807	0.9129
1816	0.9187
1825	0.9238
1834	0.9289
1843	0.9327
1852	0.9358
1861	0.9383
1870	0.9394
1879	0.9404
1888	0.9412
1897	0.9419
1906	0.9425
1915	0.9428
1924	0.9428
1933	0.9429
1942	0.943
1951	0.9431
1960	0.9431
1969	0.9432
1978	0.9431
1987	0.9429
1996	0.9426
2005	0.9423
2014	0.9421
2023	0.9422
2032	0.9423
2041	0.9423
2050	0.9424
2059	0.9421
2068	0.9416
2077	0.9411
2086	0.9407
2095	0.9403
2104	0.9399
2113	0.9395
2122	0.9391
2131	0.9387
2140	0.9385
2149	0.9384
2158	0.9382
2167	0.9381
2176	0.938
2185	0.9382
2194	0.9384
2203	0.9386
2212	0.9387
2221	0.9389
2230	0.9393
2239	0.9399
2248	0.9405
2257	0.9412
2266	0.9418
2275	0.9422
2284	0.9425
2293	0.9427
2302	0.943
2311	0.9433
2320	0.9436
2329	0.944
2338	0.9444
2347	0.943
2356	0.9355
2365	0.922
2374	0.9107
2383	0.9036
2392	0.9019
2401	0.9027
2410	0.904
2419	0.9062
2428	0.9089
2437	0.9118
2446	0.9151
2455	0.9184
2464	0.9209
2473	0.9235
2482	0.9254
2491	0.9263
2500	0.9272
2509	0.9273
2518	0.9275
2527	0.9276
2536	0.9277
2545	0.9277
2554	0.9278
2563	0.9276
2572	0.9266
2581	0.9255
2590	0.9245
2599	0.9235
2608	0.9225
2617	0.9213
2626	0.92
2635	0.9187
2644	0.9174
2653	0.9161
2662	0.9147
2671	0.9132
2680	0.9112
2689	0.9092
2698	0.9073
2707	0.9045
2716	0.9002
2725	0.8925
2734	0.8786
2743	0.8628
2752	0.8448
2761	0.8105
2770	0.7621
2779	0.7139
2788	0.6647
2797	0.6158
2806	0.5674
2815	0.5191
2824	0.5194
2833	0.5168
2842	0.4677
2851	0.4135
2860	0.3814
2869	0.378
2878	0.3786
2887	0.4028
2896	0.4464
2905	0.4897
2914	0.5274
2923	0.5322
2932	0.5369
2941	0.5432
2950	0.6047
2959	0.6754
2968	0.7458
2977	0.8204
2986	0.8447
2995	0.8611
3004	0.8741
3013	0.884
3022	0.89
3031	0.896
3040	0.9003
3049	0.9031
3058	0.906
3067	0.9078
3076	0.9089
3085	0.9099
3094	0.9104
3103	0.9101
3112	0.9099
3121	0.9097
3130	0.9092
3139	0.9086
3148	0.908
3157	0.9074
3166	0.9068
3175	0.906
3184	0.9051
3193	0.9041
3202	0.9033
3211	0.9024
3220	0.9015
3229	0.9006
3238	0.8996
3247	0.8987
3256	0.8978
3265	0.8968
3274	0.8959
3283	0.8949
3292	0.8941
3301	0.8936
3310	0.8931
3319	0.8926
3328	0.8921
3337	0.8916
3346	0.8917
3355	0.8925
3364	0.8934
3373	0.8942
3382	0.8961
3391	0.8985
3400	0.9011
3409	0.9036
3418	0.9062
3427	0.9091
3436	0.9119
3445	0.9147
3454	0.9176
3463	0.9203
3472	0.9226
3481	0.9248
3490	0.9271
3499	0.9293
3508	0.9302
3517	0.9306
3526	0.931
3535	0.9315
3544	0.932
3553	0.9324
3562	0.9327
3571	0.9329
3580	0.9333
3589	0.9335
3598	0.9338
3607	0.934
3616	0.9343
3625	0.9345
3634	0.9347
3643	0.9349
3652	0.9351
3661	0.9353
3670	0.9354
3679	0.9356
3688	0.9358
3697	0.9359
3706	0.9358
3715	0.9358
3724	0.9358
3733	0.9358
3742	0.9358
3751	0.9358
3760	0.9358
3769	0.9358
3778	0.9358
3787	0.9358
3796	0.9358
3805	0.9357
3814	0.9357
3823	0.9356
3832	0.9356
3841	0.9355
3850	0.9355
3859	0.9354
3868	0.9354
3877	0.9353
3886	0.9353
3895	0.9352
3904	0.9352
3913	0.9352
3922	0.9352
3931	0.9352
3940	0.9352
3949	0.9352
3958	0.9351
3967	0.9351
3976	0.9351
3985	0.9351
3994	0.9351
