Infrared Spectrum: 3-HYDROXYESTRA-2,5(10)-DIENE-1,4,17-TRIONE
Formula: C18 H20 O4
CAS: 94996-48-2
State: SOLID (KBr DISC)
Class: COBLENTZ III
Instrument: BECKMAN IR-4 (HYBRID PRISM-GRATING)
Sampling: TRANSMISSION
Resolution: 4
Origin: THE WORCESTER FOUNDATION FOR EXPERIMENTAL BIOLOGY, Neal L. McNiven
1/CM	TRANSMITTANCE
655.374	0.697
666.348	0.684
677.321	0.699
688.295	0.735
699.268	0.706
710.242	0.733
721.215	0.758
732.189	0.669
743.163	0.731
754.136	0.779
765.11	0.788
776.083	0.729
787.057	0.775
798.03	0.765
809.004	0.795
819.978	0.7531
830.951	0.777
841.925	0.764
852.898	0.805
863.872	0.78
874.845	0.511
885.819	0.674
896.793	0.773
907.766	0.759
918.74	0.6349
929.713	0.67
940.687	0.772
951.66	0.518
962.634	0.742
973.608	0.743
984.581	0.766
995.555	0.706
1006.53	0.678
1017.5	0.645
1028.48	0.47
1039.45	0.632
1050.42	0.513
1061.4	0.492
1072.37	0.664
1083.34	0.568
1094.32	0.659
1105.29	0.622
1116.26	0.531
1127.24	0.67
1138.21	0.656
1149.18	0.661
1160.16	0.602
1171.13	0.579
1182.11	0.538
1193.08	0.439
1204.05	0.18
1215.03	0.124
1226	0.111
1236.97	0.134
1247.95	0.376
1258.92	0.451
1269.89	0.601
1280.87	0.432
1291.84	0.462
1302.81	0.37
1313.79	0.389
1324.76	0.207
1335.74	0.341
1346.71	0.454
1357.68	0.382
1368.66	0.131
1379.63	0.452
1390.6	0.401
1401.58	0.196
1412.55	0.31
1423.52	0.539
1434.5	0.613
1445.47	0.652
1456.44	0.559
1467.42	0.595
1478.39	0.65
1489.37	0.769
1500.34	0.767
1511.31	0.768
1522.29	0.769
1533.26	0.749
1544.23	0.733
1555.21	0.705
1566.18	0.654
1577.15	0.598
1588.13	0.465
1599.1	0.198
1610.07	0.359
1621.05	0.17
1632.02	0.071
1643	0.311
1653.97	0.148
1664.94	0.2171
1675.92	0.399
1686.89	0.599
1697.86	0.667
1708.84	0.665
1719.81	0.513
1730.78	0.0969
1741.76	0.262
1752.73	0.5891
1763.7	0.754
1774.68	0.794
1785.65	0.826
1796.63	0.825
1807.6	0.856
1818.57	0.857
1829.55	0.854
1840.52	0.854
1851.49	0.851
1862.47	0.859
1873.44	0.851
1884.41	0.86
1895.39	0.854
1906.36	0.859
1917.34	0.856
1928.31	0.848
1939.28	0.857
1950.26	0.854
1961.23	0.852
1972.2	0.85
1983.18	0.849
1994.15	0.847
2005.12	0.845
2016.1	0.844
2027.07	0.843
2038.04	0.843
2049.02	0.843
2059.99	0.843
2070.97	0.842
2081.94	0.841
2092.91	0.8402
2103.89	0.838
2114.86	0.8366
2125.83	0.835
2136.81	0.834
2147.78	0.833
2158.75	0.833
2169.73	0.8328
2180.7	0.8301
2191.67	0.83
2202.65	0.83
2213.62	0.83
2224.6	0.83
2235.57	0.83
2246.54	0.83
2257.52	0.83
2268.49	0.83
2279.46	0.83
2290.44	0.83
2301.41	0.829
2312.38	0.829
2323.36	0.8298
2334.33	0.83
2345.3	0.831
2356.28	0.8321
2367.25	0.833
2378.23	0.835
2389.2	0.835
2400.17	0.835
2411.15	0.8321
2422.12	0.8253
2433.09	0.8221
2444.07	0.8138
2455.04	0.809
2466.01	0.8053
2476.99	0.8005
2487.96	0.796
2498.93	0.7879
2509.91	0.7792
2520.88	0.777
2531.86	0.775
2542.83	0.776
2553.8	0.7752
2564.78	0.772
2575.75	0.769
2586.72	0.7669
2597.7	0.764
2608.67	0.763
2619.64	0.76
2630.62	0.7578
2641.59	0.7551
2652.56	0.754
2663.54	0.756
2674.51	0.7582
2685.49	0.762
2696.46	0.7647
2707.43	0.767
2718.41	0.765
2729.38	0.764
2740.35	0.7622
2751.33	0.756
2762.3	0.7487
2773.27	0.7459
2784.25	0.7422
2795.22	0.74
2806.19	0.7373
2817.17	0.7314
2828.14	0.7172
2839.12	0.7077
2850.09	0.6905
2861.06	0.6525
2872.04	0.5808
2883.01	0.4803
2893.98	0.4855
2904.96	0.4698
2915.93	0.4616
2926.9	0.4808
2937.88	0.4355
2948.85	0.3791
2959.82	0.347
2970.8	0.3873
2981.77	0.4628
2992.75	0.4874
3003.72	0.4486
3014.69	0.4845
3025.67	0.5428
3036.64	0.594
3047.61	0.6279
3058.59	0.6155
3069.56	0.5968
3080.53	0.5823
3091.51	0.5822
3102.48	0.5811
3113.45	0.5716
3124.43	0.5631
3135.4	0.546
3146.38	0.5261
3157.35	0.5063
3168.32	0.486
3179.3	0.4637
3190.27	0.4419
3201.24	0.4203
3212.22	0.3972
3223.19	0.3735
3234.16	0.3505
3245.14	0.3269
3256.11	0.3038
3267.08	0.2849
3278.06	0.277
3289.03	0.2731
3300.01	0.272
3310.98	0.273
3321.95	0.2762
3332.93	0.2818
3343.9	0.3008
3354.87	0.3306
3365.85	0.3606
3376.82	0.3908
3387.79	0.4208
3398.77	0.4509
3409.74	0.4798
3420.71	0.5071
3431.69	0.5337
3442.66	0.5582
3453.64	0.5808
3464.61	0.6003
3475.58	0.6183
3486.56	0.6282
3497.53	0.6434
3508.5	0.6656
3519.48	0.6845
3530.45	0.6989
3541.42	0.706
3552.4	0.711
3563.37	0.7149
3574.34	0.7194
3585.32	0.7272
3596.29	0.7384
3607.27	0.7429
3618.24	0.7457
3629.21	0.7485
3640.19	0.751
3651.16	0.754
3662.13	0.7542
3673.11	0.751
3684.08	0.751
3695.05	0.7531
3706.03	0.758
3717	0.7606
3727.97	0.7677
3738.95	0.7691
3749.92	0.7729
3760.9	0.7756
3771.87	0.7784
3782.84	0.78
3793.82	0.781
3804.79	0.7803
3815.76	0.7796
3826.74	0.7778
3837.71	0.777
3848.68	0.779
3859.66	0.78
3870.63	0.7787
3881.6	0.777
3892.58	0.777
3903.55	0.7755
3914.53	0.7747
3925.5	0.772
3936.47	0.7702
3947.45	0.767
3958.42	0.764
3969.39	0.761
3980.37	0.7564
3991.34	0.754
4002.31	0.7526
4013.29	0.751
4024.26	0.751
4035.23	0.751
4046.21	0.751
4057.18	0.7512
4068.16	0.753
4079.13	0.754
4090.1	0.7565
4101.08	0.758
4112.05	0.759
4123.02	0.7582
4134	0.757
4144.97	0.7547
4155.94	0.753
4166.92	0.751
4177.89	0.75
4188.86	0.749
4199.84	0.748
4210.81	0.748
4221.79	0.7444
4232.76	0.743
4243.73	0.742
4254.71	0.7439
4265.68	0.7477
4276.65	0.7504
4287.63	0.7498
4298.6	0.7461
4309.57	0.7403
4320.55	0.74
4331.52	0.743
4342.49	0.746
4353.47	0.7442
4364.44	0.7385
4375.42	0.7357
4386.39	0.733
4397.36	0.731
4408.34	0.73
4419.31	0.7293
4430.28	0.7279
4441.26	0.7289
4452.23	0.73
4463.2	0.731
4474.18	0.73
4485.15	0.7281
4496.12	0.724
4507.1	0.721
4518.07	0.7222
4529.05	0.728
4540.02	0.729
4550.99	0.723
4561.97	0.7148
4572.94	0.713
4583.91	0.712
4594.89	0.714
4605.86	0.7166
4616.83	0.723
4627.81	0.7232
4638.78	0.7204
4649.75	0.716
4660.73	0.7172
4671.7	0.7249
4682.68	0.727
4693.65	0.726
4704.62	0.7189
4715.6	0.7141
4726.57	0.7137
4737.54	0.7184
4748.52	0.721
4759.49	0.719
4770.46	0.71
4781.44	0.711
4792.41	0.714
4803.38	0.714
4814.36	0.7158
4825.33	0.717
4836.31	0.719
4847.28	0.721
4858.25	0.7208
4869.23	0.723
4880.2	0.7257
4891.17	0.73
4902.15	0.731
4913.12	0.7304
4924.09	0.73
