Infrared Spectrum: 2,4-DICHLOROBENZYL AMINE
Formula: C7 H7 Cl2 N
CAS: 95-00-1
State: LIQUID
Class: COBLENTZ
Instrument: Not specified, most likely a grating spectrometer.
Sampling: TRANSMISSION
Path length: FILM
Resolution: 4
Origin: STANDARD OIL OF OHIO
1/CM	TRANSMITTANCE
237.701	0.702
247.168	0.705
256.636	0.71
266.103	0.71
275.571	0.712
285.038	0.71
294.506	0.707
303.973	0.705
313.441	0.702
322.908	0.705
332.376	0.714
341.843	0.707
351.311	0.697
360.778	0.724
370.246	0.741
379.713	0.727
389.181	0.653
398.648	0.668
408.116	0.726
417.583	0.653
427.051	0.688
436.518	0.6871
445.986	0.6299
455.453	0.719
464.921	0.7719
474.388	0.784
483.856	0.738
493.323	0.7769
502.791	0.831
512.258	0.828
521.726	0.821
531.193	0.7631
540.661	0.792
550.128	0.722
559.595	0.6929
569.063	0.6411
578.53	0.753
587.998	0.824
597.465	0.831
606.933	0.835
616.4	0.833
625.868	0.824
635.335	0.802
644.803	0.53
654.27	0.6147
663.738	0.816
673.205	0.802
682.673	0.7142
692.14	0.5282
701.608	0.535
711.075	0.43
720.543	0.5739
730.01	0.5001
739.478	0.557
748.945	0.697
758.413	0.7
767.88	0.651
777.348	0.583
786.815	0.562
796.283	0.484
805.75	0.348
815.218	0.25
824.685	0.263
834.153	0.285
843.62	0.335
853.087	0.338
862.555	0.272
872.022	0.2779
881.49	0.35
890.957	0.382
900.425	0.438
909.892	0.5
919.36	0.557
928.827	0.619
938.295	0.653
947.762	0.646
957.23	0.704
966.697	0.734
976.165	0.736
985.632	0.726
995.1	0.739
1004.57	0.775
1014.03	0.775
1023.5	0.732
1032.97	0.6021
1042.44	0.397
1051.9	0.457
1061.37	0.503
1070.84	0.542
1080.31	0.636
1089.77	0.5449
1099.24	0.338
1108.71	0.535
1118.18	0.649
1127.64	0.593
1137.11	0.61
1146.58	0.675
1156.05	0.751
1165.51	0.79
1174.98	0.804
1184.45	0.777
1193.92	0.698
1203.38	0.715
1212.85	0.794
1222.32	0.824
1231.79	0.824
1241.25	0.804
1250.72	0.78
1260.19	0.724
1269.66	0.739
1279.12	0.792
1288.59	0.806
1298.06	0.801
1307.53	0.78
1316.99	0.804
1326.46	0.801
1335.93	0.741
1345.4	0.681
1354.86	0.675
1364.33	0.624
1373.8	0.491
1383.27	0.3861
1392.73	0.403
1402.2	0.6021
1411.67	0.724
1421.14	0.676
1430.6	0.586
1440.07	0.4961
1449.54	0.462
1459.01	0.442
1468.47	0.251
1477.94	0.3229
1487.41	0.551
1496.88	0.661
1506.34	0.738
1515.81	0.744
1525.28	0.758
1534.75	0.75
1544.21	0.702
1553.68	0.517
1563.15	0.3241
1572.62	0.5
1582.08	0.358
1591.55	0.301
1601.02	0.4838
1610.49	0.559
1619.95	0.581
1629.42	0.595
1638.89	0.6
1648.36	0.654
1657.82	0.732
1667.29	0.761
1676.76	0.79
1686.23	0.821
1695.69	0.84
1705.16	0.852
1714.63	0.848
1724.1	0.831
1733.56	0.824
1743.03	0.836
1752.5	0.85
1761.97	0.86
1771.43	0.869
1780.9	0.874
1790.37	0.88
1799.84	0.886
1809.3	0.886
1818.77	0.884
1828.24	0.887
1837.71	0.887
1847.17	0.887
1856.64	0.886
1866.11	0.882
1875.58	0.875
1885.04	0.86
1894.51	0.845
1903.98	0.855
1913.45	0.865
1922.91	0.872
1932.38	0.879
1941.85	0.886
1951.32	0.891
1960.78	0.894
1970.25	0.897
1979.72	0.899
1989.19	0.901
1998.65	0.901
2008.12	0.903
2017.59	0.903
2027.06	0.904
2036.52	0.904
2045.99	0.904
2055.46	0.906
2064.93	0.906
2074.39	0.906
2083.86	0.906
2093.33	0.906
2102.8	0.906
2112.26	0.906
2121.73	0.906
2131.2	0.904
2140.67	0.904
2150.13	0.904
2159.6	0.904
2169.07	0.904
2178.54	0.904
2188	0.904
2197.47	0.904
2206.94	0.904
2216.41	0.903
2225.87	0.903
2235.34	0.9024
2244.81	0.901
2254.28	0.904
2263.74	0.903
2273.21	0.901
2282.68	0.8993
2292.15	0.901
2301.61	0.9028
2311.08	0.901
2320.55	0.901
2330.02	0.901
2339.48	0.904
2348.95	0.901
2358.42	0.9009
2367.89	0.901
2377.35	0.901
2386.82	0.902
2396.29	0.901
2405.75	0.899
2415.22	0.901
2424.69	0.901
2434.16	0.899
2443.62	0.899
2453.09	0.899
2462.56	0.899
2472.03	0.897
2481.49	0.897
2490.96	0.894
2500.43	0.892
2509.9	0.891
2519.36	0.891
2528.83	0.892
2538.3	0.8934
2547.77	0.894
2557.23	0.894
2566.7	0.894
2576.17	0.894
2585.64	0.892
2595.1	0.891
2604.57	0.8884
2614.04	0.887
2623.51	0.8834
2632.97	0.8792
2642.44	0.877
2651.91	0.875
2661.38	0.872
2670.84	0.8691
2680.31	0.8682
2689.78	0.867
2699.25	0.867
2708.71	0.867
2718.18	0.8611
2727.65	0.857
2737.12	0.8541
2746.58	0.852
2756.05	0.85
2765.52	0.848
2774.99	0.848
2784.45	0.845
2793.92	0.8389
2803.39	0.8276
2812.86	0.8029
2822.32	0.7881
2831.79	0.7473
2841.26	0.7005
2850.73	0.6712
2860.19	0.6534
2869.66	0.6296
2879.13	0.6539
2888.6	0.664
2898.06	0.6635
2907.53	0.6482
2917	0.6282
2926.47	0.624
2935.93	0.6274
2945.4	0.6634
2954.87	0.7072
2964.34	0.7536
2973.8	0.7981
2983.27	0.8118
2992.74	0.8117
3002.21	0.7977
3011.67	0.7821
3021.14	0.7703
3030.61	0.765
3040.08	0.7537
3049.54	0.7298
3059.01	0.7031
3068.48	0.709
3077.95	0.721
3087.41	0.7058
3096.88	0.7348
3106.35	0.7723
3115.82	0.777
3125.28	0.78
3134.75	0.78
3144.22	0.7615
3153.69	0.751
3163.15	0.7454
3172.62	0.7289
3182.09	0.722
3191.56	0.721
3201.02	0.719
3210.49	0.717
3219.96	0.7144
3229.43	0.7088
3238.89	0.7008
3248.36	0.686
3257.83	0.6698
3267.3	0.6507
3276.76	0.632
3286.23	0.6198
3295.7	0.6197
3305.17	0.6254
3314.63	0.6349
3324.1	0.6467
3333.57	0.6602
3343.04	0.6637
3352.5	0.6515
3361.97	0.6192
3371.44	0.5825
3380.91	0.564
3390.37	0.583
3399.84	0.6253
3409.31	0.6938
3418.78	0.7478
3428.24	0.7726
3437.71	0.7832
3447.18	0.7936
3456.65	0.8014
3466.11	0.8069
3475.58	0.8169
3485.05	0.8209
3494.52	0.8269
3503.98	0.829
3513.45	0.8365
3522.92	0.841
3532.39	0.8455
3541.85	0.848
3551.32	0.8525
3560.79	0.857
3570.26	0.8611
3579.72	0.8631
3589.19	0.8662
3598.66	0.8672
3608.13	0.869
3617.59	0.869
3627.06	0.867
3636.53	0.8646
3646	0.853
3655.46	0.848
3664.93	0.852
3674.4	0.8704
3683.87	0.8797
3693.33	0.882
3702.8	0.882
3712.27	0.882
3721.74	0.8805
3731.2	0.88
3740.67	0.8836
3750.14	0.884
3759.61	0.886
3769.07	0.886
3778.54	0.886
3788.01	0.886
3797.48	0.886
3806.94	0.887
3816.41	0.886
3825.88	0.886
3835.35	0.886
3844.81	0.884
3854.28	0.884
3863.75	0.884
3873.22	0.8801
3882.68	0.879
3892.15	0.877
