Infrared Spectrum: TRIETHYLENE GLYCOL DI-2-ETHYLBUTYRATE
Formula: C18 H34 O6
CAS: 95-08-9
State: LIQUID
Class: COBLENTZ
Instrument: PERKIN-ELMER
Sampling: TRANSMISSION
Path length: 0.0015 CM
Resolution: 4
Origin: STANDARD OIL OF OHIO
MICROMETERS	TRANSMITTANCE
2.27	0.969
2.30379	0.938
2.33757	0.926
2.37136	0.933
2.40514	0.938
2.43893	0.938
2.47271	0.942
2.5065	0.95
2.54028	0.955
2.57407	0.962
2.60785	0.971
2.64164	0.974
2.67542	0.977
2.70921	0.977
2.74299	0.977
2.77678	0.976
2.81056	0.969
2.84435	0.959
2.87813	0.955
2.91192	0.95
2.9457	0.959
2.97949	0.969
3.01327	0.974
3.04706	0.974
3.08084	0.972
3.11463	0.971
3.14841	0.962
3.1822	0.955
3.21598	0.947
3.24977	0.931
3.28355	0.897
3.31734	0.778
3.35112	0.282
3.38491	0.073
3.41869	0.027
3.45248	0.03
3.48626	0.034
3.52005	0.354
3.55383	0.66
3.58762	0.744
3.6214	0.817
3.65519	0.844
3.68897	0.862
3.72276	0.884
3.75654	0.902
3.79033	0.914
3.82411	0.925
3.8579	0.933
3.89168	0.942
3.92547	0.954
3.95925	0.96
3.99304	0.965
4.02682	0.969
4.06061	0.971
4.09439	0.971
4.12818	0.972
4.16196	0.974
4.19575	0.974
4.22953	0.974
4.26332	0.972
4.2971	0.972
4.33089	0.972
4.36467	0.972
4.39846	0.972
4.43224	0.972
4.46603	0.972
4.49981	0.972
4.5336	0.972
4.56738	0.972
4.60117	0.972
4.63495	0.972
4.66874	0.974
4.70252	0.974
4.73631	0.974
4.77009	0.974
4.80388	0.972
4.83766	0.971
4.87145	0.967
4.90523	0.965
4.93902	0.964
4.9728	0.962
5.00659	0.96
5.04037	0.96
5.07416	0.96
5.10794	0.96
5.14173	0.964
5.17551	0.967
5.2093	0.967
5.24308	0.971
5.27687	0.971
5.31065	0.969
5.34444	0.969
5.37822	0.969
5.41201	0.969
5.44579	0.965
5.47958	0.959
5.51336	0.948
5.54715	0.931
5.58093	0.906
5.61472	0.879
5.6485	0.793
5.68229	0.558
5.71608	0.163
5.74986	0.034
5.78365	0.045
5.81743	0.344
5.85122	0.597
5.885	0.706
5.91879	0.8
5.95257	0.846
5.98636	0.877
6.02014	0.896
6.05393	0.904
6.08771	0.914
6.1215	0.923
6.15528	0.93
6.18907	0.935
6.22285	0.94
6.25664	0.94
6.29042	0.94
6.32421	0.94
6.35799	0.938
6.39178	0.936
6.42556	0.935
6.45935	0.935
6.49313	0.933
6.52692	0.926
6.5607	0.921
6.59449	0.916
6.62827	0.902
6.66206	0.887
6.69584	0.839
6.72963	0.749
6.76341	0.499
6.7972	0.279
6.83098	0.134
6.86477	0.211
6.89855	0.327
6.93234	0.453
6.96612	0.577
6.99991	0.674
7.03369	0.747
7.06748	0.759
7.10126	0.747
7.13505	0.696
7.16883	0.562
7.20262	0.425
7.2364	0.347
7.27019	0.432
7.30397	0.534
7.33776	0.56
7.37154	0.555
7.40533	0.528
7.43911	0.548
7.4729	0.601
7.50668	0.638
7.54047	0.64
7.57425	0.633
7.60804	0.635
7.64182	0.592
7.67561	0.555
7.70939	0.545
7.74318	0.538
7.77696	0.522
7.81075	0.48
7.84453	0.378
7.87832	0.344
7.9121	0.364
7.94589	0.407
7.97967	0.417
8.01346	0.408
8.04724	0.364
8.08103	0.306
8.11481	0.264
8.1486	0.247
8.18238	0.252
8.21617	0.282
8.24995	0.342
8.28374	0.39
8.31752	0.402
8.35131	0.371
8.38509	0.286
8.41888	0.206
8.45266	0.136
8.48645	0.122
8.52023	0.127
8.55402	0.165
8.5878	0.201
8.62159	0.209
8.65537	0.148
8.68916	0.117
8.72294	0.083
8.75673	0.073
8.79051	0.071
8.8243	0.071
8.85808	0.074
8.89187	0.078
8.92565	0.091
8.95944	0.114
8.99322	0.134
9.02701	0.153
9.06079	0.185
9.09458	0.211
9.12836	0.229
9.16215	0.24
9.19594	0.255
9.22972	0.325
9.26351	0.367
9.29729	0.42
9.33108	0.478
9.36486	0.522
9.39865	0.55
9.43243	0.557
9.46622	0.553
9.5	0.524
9.53379	0.456
9.56757	0.439
9.60136	0.449
9.63514	0.473
9.66893	0.511
9.70271	0.543
9.7365	0.574
9.77028	0.608
9.80407	0.625
9.83785	0.635
9.87164	0.64
9.90542	0.642
9.93921	0.638
9.97299	0.635
10.0068	0.638
10.0406	0.64
10.0743	0.647
10.1081	0.655
10.1419	0.669
10.1757	0.683
10.2095	0.693
10.2433	0.698
10.2771	0.7
10.3108	0.698
10.3446	0.695
10.3784	0.684
10.4122	0.671
10.446	0.662
10.4798	0.659
10.5136	0.652
10.5473	0.649
10.5811	0.647
10.6149	0.652
10.6487	0.66
10.6825	0.671
10.7163	0.681
10.75	0.693
10.7838	0.703
10.8176	0.717
10.8514	0.729
10.8852	0.739
10.919	0.747
10.9528	0.761
10.9865	0.771
11.0203	0.787
11.0541	0.795
11.0879	0.802
11.1217	0.804
11.1555	0.809
11.1893	0.809
11.223	0.81
11.2568	0.81
11.2906	0.81
11.3244	0.812
11.3582	0.81
11.392	0.809
11.4257	0.807
11.4595	0.8
11.4933	0.793
11.5271	0.79
11.5609	0.788
11.5947	0.787
11.6285	0.785
11.6622	0.783
11.696	0.783
11.7298	0.785
11.7636	0.79
11.7974	0.793
11.8312	0.795
11.865	0.8
11.8987	0.802
11.9325	0.804
11.9663	0.807
12.0001	0.81
12.0339	0.812
12.0677	0.814
12.1014	0.814
12.1352	0.814
12.169	0.814
12.2028	0.814
12.2366	0.812
12.2704	0.81
12.3042	0.807
12.3379	0.805
12.3717	0.804
12.4055	0.804
12.4393	0.805
12.4731	0.805
12.5069	0.805
12.5407	0.804
12.5744	0.804
12.6082	0.802
12.642	0.802
12.6758	0.802
12.7096	0.802
12.7434	0.802
12.7772	0.8
12.8109	0.802
12.8447	0.804
12.8785	0.809
12.9123	0.812
12.9461	0.816
12.9799	0.821
13.0136	0.822
13.0474	0.824
13.0812	0.826
13.115	0.833
13.1488	0.836
13.1826	0.839
13.2164	0.839
13.2501	0.836
13.2839	0.831
13.3177	0.822
13.3515	0.81
13.3853	0.79
13.4191	0.775
13.4529	0.761
13.4866	0.752
13.5204	0.752
13.5542	0.758
13.588	0.763
13.6218	0.771
13.6556	0.778
13.6893	0.78
13.7231	0.778
13.7569	0.77
13.7907	0.761
13.8245	0.752
13.8583	0.746
13.8921	0.742
13.9258	0.744
13.9596	0.756
13.9934	0.776
14.0272	0.802
14.061	0.817
14.0948	0.829
14.1286	0.841
14.1623	0.846
14.1961	0.853
14.2299	0.862
14.2637	0.863
14.2975	0.865
14.3313	0.868
14.365	0.868
14.3988	0.868
14.4326	0.868
14.4664	0.868
14.5002	0.868
14.534	0.868
14.5678	0.867
14.6015	0.867
14.6353	0.863
14.6691	0.862
14.7029	0.858
14.7367	0.858
14.7705	0.855
14.8043	0.85
14.838	0.848
14.8718	0.843
14.9056	0.839
14.9394	0.838
14.9732	0.833
15.007	0.827
15.0407	0.824
15.0745	0.819
15.1083	0.816
15.1421	0.81
15.1759	0.807
15.2097	0.802
15.2435	0.8
15.2772	0.797
15.311	0.795
