Infrared Spectrum: Benzotriazole
Formula: C 6 H 5 N 3
CAS: 95-14-7
State: gas
Instrument: HP-GC/MS/IRD
Origin: NIST Mass Spectrometry Data Center
1/CM	ABSORBANCE
550	0.0011141
562	0.0011908
574	0.0014768
586	0.0008931
598	0.0007826
610	0.0011518
622	0.0009217
634	0.0006656
646	0.0005265
658	0.0013858
670	0.0028015
682	0.0042055
694	0.0027586
706	0.0014352
718	0.0023465
730	0.0056667
742	0.013
754	0.0072345
766	0.0044824
778	0.0020306
790	0.0006396
802	0.0002457
814	0.0001235
826	0.0001664
838	0.0002678
850	0.0003952
862	0.0007891
874	0.0016835
886	0.0022191
898	0.0024167
910	0.0029783
922	0.0031278
934	0.0021918
946	0.00078
958	0.0006864
970	0.0008593
982	0.0014404
994	0.0030953
1006	0.003627
1018	0.0022438
1030	0.0005278
1042	0.000117
1054	5.85e-05
1066	6.24e-05
1078	0.0001599
1090	0.0004836
1102	0.0008151
1114	0.0013936
1126	0.0017342
1138	0.0016913
1150	0.0015132
1162	0.0015691
1174	0.0020306
1186	0.0025142
1198	0.0031395
1210	0.0041145
1222	0.0038662
1234	0.0020774
1246	0.0020618
1258	0.0018902
1270	0.0010725
1282	0.001287
1294	0.0026442
1306	0.00286
1318	0.0012857
1330	0.0004992
1342	0.0002301
1354	0.0001937
1366	0.0005551
1378	0.0008476
1390	0.0009503
1402	0.0006084
1414	0.0002756
1426	0.0001222
1438	0.0003861
1450	0.0009451
1462	0.0008515
1474	0.0002886
1486	0.0003328
1498	0.0003692
1510	0.0001885
1522	4.42e-05
1534	7.8e-06
1546	7.93e-05
1558	0.0002119
1570	0.000416
1582	0.0004927
1594	0.0005811
1606	0.0007787
1618	0.0010166
1630	0.0006084
1642	9.88e-05
1654	0.0001521
1666	0.0003042
1678	0.0003666
1690	0.0002392
1702	0.0001833
1714	0.0001443
1726	0.0001391
1738	0.000143
1750	0.0001287
1762	0.0002431
1774	0.0003302
1786	0.0002808
1798	0.0002626
1810	0.0002522
1822	0.0001924
1834	6.89e-05
1846	9.75e-05
1858	0.0001118
1870	0.0001781
1882	0.0002379
1894	0.0003133
1906	0.000364
1918	0.0002925
1930	0.000325
1942	0.0003003
1954	0.000143
1966	4.81e-05
1978	4.29e-05
1990	5.59e-05
2002	4.81e-05
2014	2.6e-05
2026	4.68e-05
2038	4.42e-05
2050	6.5e-05
2062	5.98e-05
2074	5.33e-05
2086	6.11e-05
2098	6.24e-05
2110	5.59e-05
2122	9.75e-05
2134	8.84e-05
2146	0.0001027
2158	7.67e-05
2170	6.5e-05
2182	8.32e-05
2194	8.32e-05
2206	0.0001378
2218	0.0001131
2230	0.0001001
2242	8.32e-05
2254	0.0001066
2266	0.0001326
2278	0.0001768
2290	0.0002015
2302	0.0002028
2314	0.0001664
2326	0.0001534
2338	0.0001521
2350	0.0001755
2362	0.0002067
2374	0.0002132
2386	0.0002002
2398	0.0001482
2410	0.0001339
2422	0.0001768
2434	0.0001521
2446	0.0001508
2458	0.0001573
2470	0.0001625
2482	0.0001612
2494	0.0002379
2506	0.0002561
2518	0.0002171
2530	0.0001495
2542	0.0001209
2554	0.0001521
2566	0.0001287
2578	0.0001365
2590	0.0001677
2602	0.000195
2614	0.0002067
2626	0.0002288
2638	0.0001248
2650	8.97e-05
2662	8.97e-05
2674	0.000117
2686	9.62e-05
2698	5.33e-05
2710	9.23e-05
2722	9.36e-05
2734	8.19e-05
2746	9.88e-05
2758	0.0001053
2770	0.0001274
2782	7.28e-05
2794	7.8e-05
2806	6.5e-05
2818	0.0001066
2830	8.84e-05
2842	0.0001105
2854	0.0001027
2866	0.0001456
2878	0.0001469
2890	0.0001833
2902	0.0001599
2914	8.45e-05
2926	9.75e-05
2938	0.0001352
2950	0.0001313
2962	0.0001651
2974	0.0001833
2986	0.000195
2998	0.0001963
3010	0.000182
3022	0.0003094
3034	0.0006279
3046	0.0012389
3058	0.0020475
3070	0.0028184
3082	0.002535
3094	0.0016133
3106	0.0011245
3118	0.0004654
3130	0.0002353
3142	0.000143
3154	0.0001443
3166	0.0001456
3178	0.0001092
3190	0.0001066
3202	5.72e-05
3214	0.0001521
3226	0.0001404
3238	0.0001222
3250	7.41e-05
3262	8.97e-05
3274	0.0001183
3286	0.0001079
3298	0.0001248
3310	0.0001573
3322	0.0001482
3334	0.0001066
3346	0.0001417
3358	0.0001417
3370	0.0001144
3382	0.0001404
3394	0.0001053
3406	8.58e-05
3418	0.0001339
3430	0.0002704
3442	0.0004498
3454	0.0011362
3466	0.0030212
3478	0.0076297
3490	0.0096434
3502	0.0106418
3514	0.0074412
3526	0.0031161
3538	0.000689
3550	0.0001768
3562	0.0001157
3574	0.000117
3586	0.0001287
3598	9.1e-05
3610	0.0001118
3622	7.54e-05
3634	4.68e-05
3646	7.93e-05
3658	0.0001001
3670	8.84e-05
3682	0.0001248
3694	0.0001014
3706	2.21e-05
3718	6.37e-05
3730	2.86e-05
3742	9.62e-05
3754	6.63e-05
3766	1.95e-05
3778	1.95e-05
3790	0.0001274
3802	7.54e-05
3814	0.0001313
3826	5.2e-05
3838	1.95e-05
