Infrared Spectrum: Bicyclo[2.2.1]-5-heptene-2-carbonitrile
Formula: C 8 H 9 N
CAS: 95-11-4
State: gas
Origin: EPA-IR VAPOR PHASE LIBRARY
1/CM	ABSORBANCE
549.8	0.0003937
559.445	0.0004445
569.09	0.0003534
578.734	0.000713
588.379	0.00026392
598.024	0.0003957
607.669	0.00046
617.313	0.0001743
626.958	0.00027471
636.603	0.0004896
646.248	0.0004383
655.893	0.0008603
665.537	0.0007979
675.182	0.0006434
684.827	0.001036
694.472	0.00166
704.116	0.00466
713.761	0.01188
723.406	0.0157
733.051	0.01148
742.695	0.00407
752.34	0.00251
761.985	0.00171
771.63	0.0011584
781.275	0.0008687
790.919	0.0009567
800.564	0.000935
810.209	0.00193
819.854	0.00296
829.498	0.00391
839.143	0.00224
848.788	0.0012073
858.433	0.0005187
868.078	0.0007438
877.722	0.0004938
887.367	0.0009939
897.012	0.00157
906.657	0.00255
916.301	0.00294
925.946	0.00162
935.591	0.0008539
945.236	0.0009207
954.88	0.000849
964.525	0.0007161
974.17	0.0006359
983.815	0.0006496
993.46	0.0006059
1003.1	0.0006606
1012.75	0.0009041
1022.39	0.0012374
1032.04	0.00142
1041.68	0.0009533
1051.33	0.0008404
1060.97	0.0006959
1070.62	0.00028157
1080.26	0.0007517
1089.91	0.0011598
1099.55	0.0010036
1109.2	0.00141
1118.84	0.00133
1128.49	0.00128
1138.13	0.00145
1147.78	0.001186
1157.42	0.0008004
1167.07	0.0005574
1176.71	0.0004742
1186.36	0.0004782
1196	0.0004237
1205.64	0.000241892
1215.29	0.0009134
1224.93	0.0011952
1234.58	0.0012384
1244.22	0.0012126
1253.87	0.00148
1263.51	0.00147
1273.16	0.00125
1282.8	0.0008424
1292.45	0.0007156
1302.09	0.0009763
1311.74	0.0013
1321.38	0.00217
1331.03	0.00387
1340.67	0.00505
1350.32	0.00345
1359.96	0.00132
1369.61	0.0005426
1379.25	0.0004479
1388.9	0.000473
1398.54	0.0004981
1408.18	0.0005676
1417.83	0.0006437
1427.47	0.00092
1437.12	0.0016
1446.76	0.00248
1456.41	0.00275
1466.05	0.00194
1475.7	0.0011237
1485.34	0.0006704
1494.99	0.0004616
1504.63	0.0003654
1514.28	0.0004112
1523.92	0.00031282
1533.57	0.00027606
1543.21	0.000386
1552.86	0.0004072
1562.5	0.0005934
1572.15	0.0006763
1581.79	0.0005889
1591.44	0.0005439
1601.08	0.0004088
1610.73	0.0006019
1620.37	0.0009045
1630.01	0.0012327
1639.66	0.0011787
1649.3	0.0008927
1658.95	0.0005941
1668.59	0.0004329
1678.24	0.0003484
1687.88	0.00031534
1697.53	0.00032371
1707.17	0.000346
1716.82	0.0003652
1726.46	0.000398
1736.11	0.0004222
1745.75	0.0003799
1755.4	0.0003989
1765.04	0.00031576
1774.69	0.0003606
1784.33	0.0004081
1793.98	0.0003717
1803.62	0.0004239
1813.27	0.0004418
1822.91	0.0005096
1832.55	0.0004588
1842.2	0.0003806
1851.84	0.0003619
1861.49	0.000391
1871.13	0.00031359
1880.78	0.0003837
1890.42	0.0003679
1900.07	0.0003658
1909.71	0.0003559
1919.36	0.0003743
1929	0.0004112
1938.65	0.0004715
1948.29	0.0003946
1957.94	0.00030415
1967.58	0.0003216
1977.23	0.00038
1986.87	0.0003943
1996.52	0.0003884
2006.16	0.0003817
2015.81	0.000354
2025.45	0.0003554
2035.1	0.0004878
2044.74	0.000503
2054.38	0.0005296
2064.03	0.0004939
2073.67	0.000403
2083.32	0.0005291
2092.96	0.0004563
2102.61	0.0004785
2112.25	0.0004697
2121.9	0.000418
2131.54	0.0003582
2141.19	0.0003731
2150.83	0.0004385
2160.48	0.000526
2170.12	0.0004801
2179.77	0.0004955
2189.41	0.0005738
2199.06	0.0005634
2208.7	0.0006117
2218.35	0.0008801
2227.99	0.00147
2237.64	0.00222
2247.28	0.00223
2256.92	0.00132
2266.57	0.0005738
2276.21	0.0005529
2285.86	0.0004795
2295.5	0.0004622
2305.15	0.0004136
2314.79	0.0005427
2324.44	0.0004704
2334.08	0.0004561
2343.73	0.0004135
2353.37	0.0004825
2363.02	0.0004298
2372.66	0.0004201
2382.31	0.000365
2391.95	0.0003539
2401.6	0.00032828
2411.24	0.00032304
2420.89	0.0004377
2430.53	0.0003718
2440.18	0.000397
2449.82	0.0004019
2459.47	0.0004018
2469.11	0.00029244
2478.75	0.0003444
2488.4	0.0004611
2498.04	0.00033602
2507.69	0.0004228
2517.33	0.0003479
2526.98	0.00032261
2536.62	0.0004367
2546.27	0.0003752
2555.91	0.00032481
2565.56	0.000244334
2575.2	0.00023759
2584.85	0.00025476
2594.49	0.00029272
2604.14	0.0004136
2613.78	0.00030535
2623.43	0.00030166
2633.07	0.00023008
2642.72	0.00026343
2652.36	0.00025528
2662.01	0.0003187
2671.65	0.0003911
2681.29	0.00030959
2690.94	0.00029723
2700.58	0.00026944
2710.23	0.00029919
2719.87	0.0003434
2729.52	0.000371
2739.16	0.0003236
2748.81	0.0003548
2758.45	0.00027234
2768.1	0.000371
2777.74	0.0003738
2787.39	0.00032893
2797.03	0.0003438
2806.68	0.0003431
2816.32	0.000246104
2825.97	0.0005035
2835.61	0.000621
2845.26	0.0008075
2854.9	0.00128
2864.55	0.00291
2874.19	0.00544
2883.84	0.00688
2893.48	0.00565
2903.12	0.00388
2912.77	0.0035
2922.41	0.00455
2932.06	0.00687
2941.7	0.01048
2951.35	0.0133
2960.99	0.01411
2970.64	0.01784
2980.28	0.02811
2989.93	0.03268
2999.57	0.02345
3009.22	0.00882
3018.86	0.00242
3028.51	0.0009047
3038.15	0.0007126
3047.8	0.0010062
3057.44	0.00194
3067.09	0.00312
3076.73	0.00369
3086.38	0.0029
3096.02	0.00153
3105.67	0.0008052
3115.31	0.0005877
3124.95	0.0006799
3134.6	0.0007
3144.24	0.0008248
3153.89	0.000643
3163.53	0.0004785
3173.18	0.0004114
3182.82	0.0004214
3192.47	0.00025417
3202.11	0.00032119
3211.76	0.0003719
3221.4	0.000478
3231.05	0.0004231
3240.69	0.00033594
3250.34	0.0004199
3259.98	0.0004451
3269.63	0.0003942
3279.27	0.000382
3288.92	0.0003523
3298.56	0.00031681
3308.21	0.0003673
3317.85	0.0003613
3327.49	0.00033065
3337.14	0.0002059
3346.78	0.00030235
3356.43	0.00030917
3366.07	0.0005291
3375.72	0.0003163
3385.36	0.0002947
3395.01	0.000240091
3404.65	0.0003759
3414.3	0.00031431
3423.94	0.0001823
3433.59	0.00033779
3443.23	0.000399
3452.88	0.0003871
3462.52	0.00028565
3472.17	0.0002925
3481.81	0.0003609
3491.46	0.0003676
3501.1	0.00026585
3510.75	0.0004354
3520.39	0.0003193
3530.04	0.0002019
3539.68	0.0004642
3549.32	0.0002064
3558.97	0.00028312
3568.61	0.0004259
3578.26	0.0003407
3587.9	0.0002063
3597.55	9e-05
3607.19	0.0004399
3616.84	0.0003932
3626.48	0.00023394
3636.13	0.0003945
3645.77	0.00027221
3655.42	0.0005147
3665.06	0.0003433
3674.71	0.00023932
3684.35	0.0002711
3694	0.00028455
3703.64	0.00030097
3713.29	0.0001751
3722.93	0.0004343
3732.58	0.000345
3742.22	0.0003765
3751.86	0.0004095
3761.51	0.00026706
3771.15	0.0003409
3780.8	0.0005117
3790.44	0.0006815
3800.09	0.0004226
3809.73	0.00032863
3819.38	0.0005509
3829.02	0.0003744
3838.67	0.00042
3848.31	0.0004043
3857.96	0.0004143
3867.6	0.0006292
3877.25	0.0005048
3886.89	0.0004009
3896.54	0.0006048
3906.18	0.0004285
3915.83	0.0004953
3925.47	0.0004385
3935.12	0.0005561
3944.76	0.000531
3954.41	0.0004703
3964.05	0.0003657
3973.69	0.0004648
3983.34	0.0003803
3992.98	0.000377
