Infrared Spectrum: Bicyclo[2.2.1]-5-heptene-2-carboxamide
Formula: C 8 H 11 N O
CAS: 95-17-0
State: gas
Instrument: HP-GC/MS/IRD
Origin: NIST Mass Spectrometry Data Center
1/CM	ABSORBANCE
550	0.0004508
562	0.0001673
574	0.0002562
586	0.0001981
598	0.000385
610	0.0006328
622	0.0008274
634	0.0006209
646	0.0004494
658	0.0003955
670	0.0002877
682	0.0003745
694	0.0011039
706	0.0018641
718	0.0012215
730	0.0005894
742	0.0006405
754	0.0005166
766	0.000539
778	0.0006405
790	0.0005292
802	0.0004186
814	0.0003913
826	0.0004333
838	0.0003801
850	0.0003626
862	0.0003451
874	0.0003045
886	0.0003409
898	0.0004949
910	0.0004949
922	0.000301
934	0.0002275
946	0.0001386
958	0.0001351
970	0.0001001
982	0.0001253
994	0.0001946
1006	0.0002065
1018	0.0001687
1030	0.0001456
1042	5.95e-05
1054	8.4e-06
1066	0.0002079
1078	0.0003409
1090	0.0002989
1102	0.0001736
1114	0.0001407
1126	0.0001218
1138	0.0001701
1150	0.0002051
1162	0.0002394
1174	0.0003983
1186	0.0004599
1198	0.0005992
1210	0.0009352
1222	0.001099
1234	0.0012082
1246	0.0016233
1258	0.0016653
1270	0.0014861
1282	0.0014728
1294	0.0012341
1306	0.0009345
1318	0.0009674
1330	0.0014098
1342	0.0016044
1354	0.0017304
1366	0.0022351
1378	0.0019068
1390	0.0009604
1402	0.0005152
1414	0.0003388
1426	0.000231
1438	0.0002527
1450	0.0003227
1462	0.0002695
1474	0.0001617
1486	7.77e-05
1498	2.52e-05
1510	3.15e-05
1522	4.06e-05
1534	0.0001127
1546	0.0002506
1558	0.0006013
1570	0.0015484
1582	0.0028742
1594	0.0026243
1606	0.0013167
1618	0.0006482
1630	0.0003731
1642	0.000259
1654	0.0002618
1666	0.0004529
1678	0.0008806
1690	0.0017836
1702	0.0033733
1714	0.0059213
1726	0.0069538
1738	0.0046515
1750	0.0021819
1762	0.000924
1774	0.0003871
1786	0.0002303
1798	0.0001463
1810	8.96e-05
1822	6.65e-05
1834	7.42e-05
1846	0.0001015
1858	6.72e-05
1870	5.67e-05
1882	4.2e-05
1894	5.11e-05
1906	6.02e-05
1918	3.92e-05
1930	4.62e-05
1942	2.73e-05
1954	2.87e-05
1966	2.73e-05
1978	4.06e-05
1990	3.78e-05
2002	2.59e-05
2014	2.94e-05
2026	2.73e-05
2038	2.45e-05
2050	3.01e-05
2062	1.4e-05
2074	8.4e-06
2086	3.5e-05
2098	4.48e-05
2110	2.73e-05
2122	3.71e-05
2134	3.64e-05
2146	4.83e-05
2158	5.88e-05
2170	2.87e-05
2182	3.43e-05
2194	6.86e-05
2206	5.6e-05
2218	5.6e-05
2230	4.9e-05
2242	4.2e-05
2254	2.73e-05
2266	3.01e-05
2278	3.15e-05
2290	4.06e-05
2302	3.01e-05
2314	2.52e-05
2326	2.03e-05
2338	3.15e-05
2350	1.61e-05
2362	5.6e-06
2374	1.26e-05
2386	1.89e-05
2398	2.73e-05
2410	4.48e-05
2422	4.55e-05
2434	4.9e-05
2446	3.01e-05
2458	2.03e-05
2470	2.66e-05
2482	2.66e-05
2494	3.92e-05
2506	2.8e-05
2518	1.96e-05
2530	2.8e-05
2542	4.13e-05
2554	4.13e-05
2566	3.22e-05
2578	1.96e-05
2590	2.8e-05
2602	4.69e-05
2614	1.26e-05
2626	2.87e-05
2638	4.9e-05
2650	4.76e-05
2662	8.26e-05
2674	4.34e-05
2686	5.46e-05
2698	6.3e-06
2710	4.83e-05
2722	5.25e-05
2734	5.67e-05
2746	3.92e-05
2758	6.86e-05
2770	5.88e-05
2782	4.9e-05
2794	3.08e-05
2806	4.48e-05
2818	6.65e-05
2830	0.0001071
2842	0.0001232
2854	0.0001771
2866	0.000308
2878	0.0005271
2890	0.0006111
2902	0.0004739
2914	0.000686
2926	0.0011074
2938	0.0013846
2950	0.0016947
2962	0.0023422
2974	0.0034104
2986	0.0036218
2998	0.0019145
3010	0.0005852
3022	0.0002527
3034	0.0001694
3046	0.000287
3058	0.0007651
3070	0.0010213
3082	0.0005341
3094	0.000133
3106	8.75e-05
3118	6.93e-05
3130	0.0001589
3142	0.0001939
3154	0.0001463
3166	5.88e-05
3178	6.86e-05
3190	0.0001015
3202	6.09e-05
3214	6.72e-05
3226	8.68e-05
3238	8.82e-05
3250	3.22e-05
3262	1.47e-05
3274	1.4e-05
3286	6.16e-05
3298	4.06e-05
3310	9.66e-05
3322	6.58e-05
3334	6.93e-05
3346	4.55e-05
3358	9.03e-05
3370	9.59e-05
3382	0.0001764
3394	0.0002464
3406	0.0003745
3418	0.0005733
3430	0.0008141
3442	0.0007126
3454	0.0004298
3466	0.0001848
3478	0.0001883
3490	0.0001225
3502	0.0002065
3514	0.0003577
3526	0.0004235
3538	0.0004767
3550	0.000616
3562	0.0006188
3574	0.0003472
3586	0.0001295
3598	0.0001715
3610	0.0001036
3622	7e-05
3634	0.0001407
3646	0.0001176
3658	5.67e-05
3670	5.88e-05
3682	1.61e-05
3694	5.81e-05
3706	4.2e-05
3718	8.96e-05
3730	8.4e-05
3742	0.0001022
3754	9.73e-05
3766	0.0001183
3778	9.66e-05
3790	8.19e-05
3802	7.63e-05
3814	0.0001029
3826	9.31e-05
3838	4.97e-05
