Infrared Spectrum: 2-Amino-6-chlorobenzothiazole
Formula: C 7 H 5 Cl N 2 S
CAS: 95-24-9
State: gas
Instrument: HP-GC/MS/IRD
Origin: NIST Mass Spectrometry Data Center
1/CM	ABSORBANCE
550	0.0055575
562	0.00767
574	0.004615
586	0.0014755
598	0.001222
610	0.001625
622	0.0022685
634	0.003549
646	0.0046605
658	0.00286
670	0.0038415
682	0.0055965
694	0.005876
706	0.0040105
718	0.003224
730	0.003185
742	0.004173
754	0.0096525
766	0.01508
778	0.0108875
790	0.0093405
802	0.010569
814	0.0152555
826	0.009256
838	0.0048165
850	0.006253
862	0.0047125
874	0.00338
886	0.003302
898	0.0015275
910	0.000988
922	0.0007215
934	0.0005265
946	0.0004615
958	0.000364
970	0.0002665
982	0.0002145
994	0.000117
1006	0.0001365
1018	0.0001235
1030	0.000429
1042	0.002093
1054	0.003016
1066	0.001027
1078	0.003588
1090	0.0113815
1102	0.010296
1114	0.0031655
1126	0.0014105
1138	0.000936
1150	0.0003705
1162	0.0003445
1174	0.0004615
1186	0.0004745
1198	0.00065
1210	0.001209
1222	0.001846
1234	0.0027235
1246	0.0035425
1258	0.006019
1270	0.01326
1282	0.018512
1294	0.020254
1306	0.0240175
1318	0.019539
1330	0.0101465
1342	0.0061425
1354	0.0018135
1366	0.000793
1378	0.0010855
1390	0.002522
1402	0.0039585
1414	0.00637
1426	0.0085215
1438	0.030875
1450	0.041093
1462	0.012051
1474	0.0027235
1486	0.001495
1498	0.001274
1510	0.0022815
1522	0.00572
1534	0.026351
1546	0.054652
1558	0.015704
1570	0.0063895
1582	0.008697
1594	0.0174655
1606	0.04394
1618	0.065
1630	0.029562
1642	0.0094705
1654	0.00455
1666	0.0025415
1678	0.0014235
1690	0.0012155
1702	0.0012675
1714	0.0008645
1726	0.0004745
1738	0.000624
1750	0.000754
1762	0.0004485
1774	0.000351
1786	0.0003445
1798	0.000221
1810	0.0001755
1822	0.0001755
1834	0.00013
1846	0.000143
1858	0.0003315
1870	0.0006565
1882	0.0006955
1894	0.0002535
1906	9.1e-05
1918	1.3e-05
1930	2.6e-05
1942	0
1954	5.85e-05
1966	0.00013
1978	0.0001625
1990	0.000117
2002	9.75e-05
2014	7.8e-05
2026	0.000104
2038	0.0001235
2050	9.75e-05
2062	0.000117
2074	0.0001755
2086	0.00026
2098	0.0002665
2110	0.0002535
2122	0.000208
2134	0.000208
2146	0.0002535
2158	0.0002535
2170	0.000273
2182	0.00026
2194	0.000117
2206	6.5e-05
2218	0.00013
2230	0.000169
2242	0.000156
2254	0.0001755
2266	0.000234
2278	0.0002145
2290	0.000195
2302	0.0002145
2314	0.000143
2326	0.000169
2338	0.0002145
2350	0.0002275
2362	0.0002145
2374	0.00026
2386	0.0002145
2398	0.000286
2410	0.000234
2422	0.000221
2434	0.0001755
2446	0.0001495
2458	0.0001105
2470	0.0001365
2482	0.000117
2494	0.0001885
2506	0.0001885
2518	0.0002015
2530	0.000208
2542	0.0002535
2554	0.0002665
2566	0.0002925
2578	0.0002145
2590	0.0002015
2602	0.0002145
2614	0.0002535
2626	0.0004875
2638	0.000585
2650	0.0004095
2662	0.000286
2674	0.0003445
2686	0.000533
2698	0.000637
2710	0.00052
2722	0.0003705
2734	0.000195
2746	0.000208
2758	0.00013
2770	0.0001365
2782	0.000169
2794	0.0001625
2806	0.0002275
2818	0.0003315
2830	0.0004225
2842	0.000481
2854	0.000481
2866	0.000455
2878	0.00039
2890	0.000299
2902	0.0003055
2914	0.000351
2926	0.0003185
2938	0.0002925
2950	0.0002145
2962	0.00013
2974	9.1e-05
2986	0.0001105
2998	0.00013
3010	0.000143
3022	0.000143
3034	0.0001495
3046	0.0001755
3058	0.000494
3070	0.0010985
3082	0.0012415
3094	0.0009035
3106	0.0004875
3118	0.0004745
3130	0.00052
3142	0.000455
3154	0.000299
3166	0.0002405
3178	0.000234
3190	0.0003055
3202	0.0004355
3214	0.000429
3226	0.0004095
3238	0.0003055
3250	0.0002795
3262	0.0001755
3274	0.0001235
3286	0.0001105
3298	5.85e-05
3310	0.0001235
3322	0.000195
3334	0.000182
3346	0.0002405
3358	0.0002925
3370	0.0006435
3382	0.001261
3394	0.0035165
3406	0.011141
3418	0.013624
3430	0.0086515
3442	0.003588
3454	0.0011635
3466	0.0008255
3478	0.0011375
3490	0.0023725
3502	0.004693
3514	0.005434
3526	0.004134
3538	0.002977
3550	0.001521
3562	0.0006435
3574	0.000286
3586	0.0002015
3598	0.00013
3610	0.000182
3622	0.0001365
3634	0.000182
3646	0.000117
3658	0.000104
3670	0.00013
3682	0.0001625
3694	0.0001885
3706	0.0001495
3718	0.000195
3730	0.000221
3742	0.00026
3754	0.000299
3766	0.0003835
3778	0.000325
3790	0.0002405
3802	0.0002665
3814	0.0001495
3826	0.000221
3838	0.0001625
