Infrared Spectrum: 2-BENZOTHIAZOLESULFENAMIDE, N-(1,1-DIMETHYLETHYL)-
Formula: C11 H14 N2 S2
CAS: 95-31-8
State: SOLUTION (10% IN CCl4 FOR 3800-1330, 10% IN CS2 FOR 1330-450 CM^-^1)
Melting point: 105 C
Class: COBLENTZ III
Instrument: DOW KBr FOREPRISM-GRATING
Instrument parameters: BLAZED AT 3.5, 12.0, 20.0 MICRON, CHANGED AT 5.0, 7.5, 14.9 MICRON
Sampling: TRANSMISSION
Path length: 0.011, 0.010 CM
Resolution: 4
Origin: DOW CHEMICAL COMPANY
1/CM	TRANSMITTANCE
446.585	0.872
455.342	0.867
464.098	0.843
472.855	0.867
481.611	0.904
490.368	0.901
499.124	0.936
507.881	0.932
516.638	0.913
525.394	0.926
534.151	0.91
542.907	0.883
551.664	0.858
560.42	0.852
569.177	0.853
577.933	0.867
586.69	0.856
595.447	0.856
604.203	0.893
612.96	0.91
621.716	0.916
630.473	0.91
639.229	0.913
647.986	0.904
656.743	0.893
665.499	0.695
674.256	0.895
683.012	0.991
691.769	0.998
700.525	0.961
709.282	0.982
718.039	0.954
726.795	0.112
735.552	0.947
744.308	0.895
753.065	0.123
761.821	0.661
770.578	0.956
779.334	1.001
788.091	1.008
796.848	1.009
805.604	1.008
814.361	0.995
823.117	0.978
831.874	0.947
840.63	0.865
849.387	0.69
858.144	0.743
866.9	0.827
875.657	0.882
884.413	0.927
893.17	0.976
901.926	0.969
910.683	0.898
919.44	0.576
928.196	0.636
936.953	0.557
945.709	0.816
954.466	0.893
963.222	0.9
971.979	0.868
980.735	0.868
989.492	0.89
998.249	0.817
1007.01	0.2499
1015.76	0.694
1024.52	0.3311
1033.27	0.826
1042.03	0.904
1050.79	0.924
1059.54	0.958
1068.3	0.943
1077.06	0.778
1085.81	0.6161
1094.57	0.91
1103.33	0.978
1112.08	0.978
1120.84	0.932
1129.6	0.946
1138.35	0.971
1147.11	0.956
1155.87	0.883
1164.62	0.901
1173.38	0.867
1182.14	0.782
1190.89	0.646
1199.65	0.3189
1208.41	0.395
1217.16	0.575
1225.92	0.39
1234.68	0.395
1243.43	0.693
1252.19	0.919
1260.95	0.936
1269.7	0.8999
1278.46	0.864
1287.22	0.968
1295.97	0.96
1304.73	0.906
1313.48	0.5581
1322.24	0.939
1331	0.956
1339.75	0.934
1348.51	0.915
1357.27	0.852
1366.02	0.135
1374.78	0.716
1383.54	0.639
1392.29	0.821
1401.05	0.793
1409.81	0.831
1418.56	0.716
1427.32	0.2039
1436.08	0.1731
1444.83	0.49
1453.59	0.4979
1462.35	0.236
1471.1	0.021
1479.86	0.3952
1488.62	0.795
1497.37	0.795
1506.13	0.763
1514.89	0.712
1523.64	0.675
1532.4	0.616
1541.16	0.519
1549.91	0.498
1558.67	0.523
1567.43	0.63
1576.18	0.657
1584.94	0.69
1593.7	0.717
1602.45	0.831
1611.21	0.894
1619.96	0.931
1628.72	0.95
1637.48	0.964
1646.23	0.968
1654.99	0.958
1663.75	0.969
1672.5	0.961
1681.26	0.942
1690.02	0.956
1698.77	0.963
1707.53	0.978
1716.29	0.986
1725.04	0.991
1733.8	0.993
1742.56	0.997
1751.31	0.995
1760.07	0.993
1768.83	0.976
1777.58	0.931
1786.34	0.978
1795.1	0.987
1803.85	0.98
1812.61	0.957
1821.37	0.976
1830.12	0.986
1838.88	0.986
1847.64	0.983
1856.39	0.967
1865.15	0.964
1873.91	0.986
1882.66	0.986
1891.42	0.969
1900.17	0.939
1908.93	0.982
1917.69	0.987
1926.44	0.979
1935.2	0.939
1943.96	0.976
1952.71	0.987
1961.47	0.99
1970.23	0.983
1978.98	0.983
1987.74	0.98
1996.5	0.978
2005.25	0.979
2014.01	0.98
2022.77	0.98
2031.52	0.983
2040.28	0.98
2049.04	0.98
2057.79	0.982
2066.55	0.983
2075.31	0.984
2084.06	0.984
2092.82	0.982
2101.58	0.982
2110.33	0.982
2119.09	0.982
2127.85	0.982
2136.6	0.982
2145.36	0.983
2154.12	0.984
2162.87	0.986
2171.63	0.984
2180.38	0.986
2189.14	0.989
2197.9	0.99
2206.65	0.986
2215.41	0.986
2224.17	0.984
2232.92	0.9838
2241.68	0.982
2250.44	0.978
2259.19	0.9728
2267.95	0.9706
2276.71	0.9625
2285.46	0.953
2294.22	0.9562
2302.98	0.9602
2311.73	0.965
2320.49	0.965
2329.25	0.973
2338	0.9764
2346.76	0.978
2355.52	0.979
2364.27	0.98
2373.03	0.979
2381.79	0.978
2390.54	0.976
2399.3	0.9787
2408.06	0.979
2416.81	0.979
2425.57	0.979
2434.33	0.976
2443.08	0.9783
2451.84	0.9787
2460.6	0.9774
2469.35	0.973
2478.11	0.971
2486.86	0.972
2495.62	0.9717
2504.38	0.971
2513.13	0.972
2521.89	0.9753
2530.65	0.976
2539.4	0.971
2548.16	0.968
2556.92	0.9684
2565.67	0.9686
2574.43	0.9636
2583.19	0.957
2591.94	0.956
2600.7	0.954
2609.46	0.949
2618.21	0.9464
2626.97	0.9582
2635.73	0.9644
2644.48	0.964
2653.24	0.9636
2662	0.961
2670.75	0.963
2679.51	0.961
2688.27	0.9591
2697.02	0.956
2705.78	0.9551
2714.54	0.9495
2723.29	0.947
2732.05	0.944
2740.81	0.941
2749.56	0.945
2758.32	0.9435
2767.07	0.9385
2775.83	0.9355
2784.59	0.9355
2793.34	0.9315
2802.1	0.9224
2810.86	0.919
2819.61	0.9098
2828.37	0.8959
2837.13	0.8894
2845.88	0.8739
2854.64	0.8428
2863.4	0.7774
2872.15	0.683
2880.91	0.7283
2889.67	0.7402
2898.42	0.7006
2907.18	0.6402
2915.94	0.7097
2924.69	0.702
2933.45	0.5932
2942.21	0.5917
2950.96	0.6018
2959.72	0.4993
2968.48	0.2423
2977.23	0.2046
2985.99	0.2912
2994.75	0.6527
3003.5	0.8137
3012.26	0.857
3021.02	0.879
3029.77	0.8612
3038.53	0.8512
3047.28	0.8766
3056.04	0.8411
3064.8	0.7408
3073.55	0.6946
3082.31	0.8044
3091.07	0.8909
3099.82	0.9152
3108.58	0.919
3117.34	0.9135
3126.09	0.913
3134.85	0.9225
3143.61	0.9215
3152.36	0.919
3161.12	0.9152
3169.88	0.9107
3178.63	0.9024
3187.39	0.8892
3196.15	0.8756
3204.9	0.8536
3213.66	0.839
3222.42	0.824
3231.17	0.8134
3239.93	0.8158
3248.69	0.8238
3257.44	0.8388
3266.2	0.8577
3274.96	0.8707
3283.71	0.88
3292.47	0.884
3301.23	0.8785
3309.98	0.8694
3318.74	0.8479
3327.5	0.8235
3336.25	0.7684
3345.01	0.7062
3353.76	0.7819
3362.52	0.8763
3371.28	0.9083
3380.03	0.9257
3388.79	0.9349
3397.55	0.942
3406.3	0.9489
3415.06	0.9529
3423.82	0.9559
3432.57	0.957
3441.33	0.958
3450.09	0.96
3458.84	0.9629
3467.6	0.963
3476.36	0.964
3485.11	0.965
3493.87	0.968
3502.63	0.972
3511.38	0.973
3520.14	0.975
3528.9	0.976
3537.65	0.976
3546.41	0.976
3555.17	0.978
3563.92	0.978
3572.68	0.978
3581.44	0.978
3590.19	0.978
3598.95	0.979
3607.71	0.979
3616.46	0.979
3625.22	0.9791
3633.97	0.98
3642.73	0.979
3651.49	0.978
3660.24	0.978
3669	0.9781
3677.76	0.978
3686.51	0.9762
3695.27	0.978
3704.03	0.9791
3712.78	0.983
3721.54	0.984
3730.3	0.984
3739.05	0.984
3747.81	0.984
3756.57	0.983
3765.32	0.982
3774.08	0.983
3782.84	0.983
3791.59	0.9816
