Infrared Spectrum: 2,3-Butanedione dioxime
Formula: C 4 H 8 N 2 O 2
CAS: 95-45-4
State: gas
Origin: EPA-IR VAPOR PHASE LIBRARY
1/CM	ABSORBANCE
501.5	0.003546
513.074	0.002126
524.648	0.001566
536.222	0.001026
547.796	0.0007664
559.37	0.000726
570.944	0.0008384
582.518	0.0008078
594.092	0.0007087
605.666	0.0007977
617.24	0.001036
628.814	0.001266
640.388	0.001446
651.962	0.002226
663.536	0.006106
675.11	0.011466
686.684	0.010466
698.258	0.004436
709.832	0.002786
721.406	0.002176
732.98	0.002076
744.554	0.002266
756.128	0.002596
767.702	0.002796
779.276	0.002686
790.85	0.002266
802.423	0.001786
813.997	0.001316
825.571	0.001096
837.145	0.0010246
848.719	0.001256
860.293	0.001956
871.867	0.004026
883.441	0.009736
895.015	0.019126
906.589	0.019236
918.163	0.008576
929.737	0.004046
941.311	0.004756
952.885	0.009566
964.459	0.018416
976.033	0.020166
987.607	0.011726
999.181	0.005546
1010.76	0.003526
1022.33	0.002616
1033.9	0.001976
1045.48	0.001446
1057.05	0.001046
1068.63	0.0007426
1080.2	0.0005253
1091.77	0.0005635
1103.35	0.0009306
1114.92	0.002406
1126.49	0.005396
1138.07	0.005946
1149.64	0.003086
1161.22	0.001296
1172.79	0.0007604
1184.36	0.0006622
1195.94	0.0007409
1207.51	0.0007827
1219.09	0.0008282
1230.66	0.0007156
1242.23	0.0006284
1253.81	0.0007605
1265.38	0.0008427
1276.96	0.0009151
1288.53	0.001246
1300.1	0.002106
1311.68	0.005596
1323.25	0.019546
1334.83	0.026266
1346.4	0.015246
1357.97	0.005826
1369.55	0.006106
1381.12	0.005846
1392.7	0.003426
1404.27	0.002076
1415.84	0.001726
1427.42	0.001676
1438.99	0.001726
1450.57	0.001656
1462.14	0.001436
1473.71	0.001276
1485.29	0.001156
1496.86	0.001146
1508.44	0.001126
1520.01	0.000911
1531.58	0.0007585
1543.16	0.000712
1554.73	0.0006405
1566.31	0.0005141
1577.88	0.0004893
1589.45	0.0004987
1601.03	0.0005961
1612.6	0.000761
1624.18	0.0007614
1635.75	0.0005321
1647.32	0.0003295
1658.9	0.0002548
1670.47	0.000262
1682.05	0.000272
1693.62	0.0002347
1705.19	0.0001976
1716.77	0.0002336
1728.34	0.0002057
1739.92	0.0002035
1751.49	0.0002333
1763.06	0.0001975
1774.64	0.0001538
1786.21	0.0001586
1797.79	0.0001439
1809.36	0.0001582
1820.93	0.0001724
1832.51	0.000255
1844.08	0.0003287
1855.66	0.0003159
1867.23	0.000257
1878.8	0.0001956
1890.38	0.0002036
1901.95	0.000235
1913.53	0.0002555
1925.1	0.0002162
1936.67	0.000158
1948.25	0.0001249
1959.82	0.00011053
1971.4	8.628e-05
1982.97	7.65e-05
1994.54	7.051e-05
2006.12	4.663e-05
2017.69	4.95e-05
2029.27	4.971e-05
2040.84	7.566e-05
2052.41	5.974e-05
2063.99	9.964e-05
2075.56	8.702e-05
2087.14	8.524e-05
2098.71	7.357e-05
2110.28	6.279e-05
2121.86	5.854e-05
2133.43	5.239e-05
2145.01	5.781e-05
2156.58	4.931e-05
2168.15	1.01e-05
2179.73	2.9649e-05
2191.3	1.8e-06
2202.88	2.8805e-05
2214.45	5.348e-05
2226.02	7.129e-05
2237.6	0.00012585
2249.17	0.0002172
2260.74	0.0002915
2272.32	0.0003322
2283.89	0.0003615
2295.47	0.0003303
2307.04	0.0003672
2318.61	0.0003643
2330.19	0.0002906
2341.76	0.0002521
2353.34	0.0002232
2364.91	0.0002678
2376.48	0.0001929
2388.06	6.528e-05
2399.63	6.368e-05
2411.21	3.4049e-05
2422.78	2.9359e-05
2434.35	3.396e-05
2445.93	5.135e-05
2457.5	4.541e-05
2469.08	4.991e-05
2480.65	6.637e-05
2492.22	7.238e-05
2503.8	9.528e-05
2515.37	8.612e-05
2526.95	0.00010132
2538.52	8.325e-05
2550.09	4.39e-05
2561.67	9.5e-06
2573.24	5.934e-05
2584.82	0.0001042
2596.39	0.0002373
2607.96	0.0004429
2619.54	0.0007042
2631.11	0.0005586
2642.69	0.0002358
2654.26	0.0001006
2665.83	0.0001333
2677.41	0.0001701
2688.98	0.0001743
2700.56	0.000185
2712.13	0.0001519
2723.7	8.605e-05
2735.28	0.00010298
2746.85	5.757e-05
2758.43	7.7e-05
2770	8.819e-05
2781.57	9.279e-05
2793.15	7.992e-05
2804.72	7.356e-05
2816.3	8.989e-05
2827.87	0.0001349
2839.44	0.0002185
2851.02	0.0003156
2862.59	0.000403
2874.17	0.0004613
2885.74	0.0005282
2897.31	0.000568
2908.89	0.000743
2920.46	0.001106
2932.04	0.001796
2943.61	0.002446
2955.18	0.002506
2966.76	0.002036
2978.33	0.001496
2989.91	0.001086
3001.48	0.0008312
3013.05	0.0006806
3024.63	0.0005713
3036.2	0.0006115
3047.78	0.0006682
3059.35	0.0006876
3070.92	0.0006042
3082.5	0.0005319
3094.07	0.0004357
3105.65	0.0003418
3117.22	0.0002268
3128.79	0.0001896
3140.37	0.0001378
3151.94	0.0001431
3163.52	0.0001291
3175.09	0.0001339
3186.66	0.00010557
3198.24	9.582e-05
3209.81	0.0001611
3221.39	0.0002157
3232.96	0.0003003
3244.53	0.0003419
3256.11	0.0003215
3267.68	0.0002797
3279.26	0.0002356
3290.83	0.0001901
3302.4	0.000149
3313.98	0.000142
3325.55	0.00011193
3337.13	0.00010155
3348.7	5.814e-05
3360.27	8.249e-05
3371.85	0.00010502
3383.42	7.478e-05
3395	7.24e-05
3406.57	0.00010742
3418.14	0.00012136
3429.72	0.000142
3441.29	0.0001542
3452.86	0.000129
3464.44	0.0001458
3476.01	0.0001433
3487.59	0.000169
3499.16	0.0001586
3510.73	0.0001564
3522.31	0.0001758
3533.88	0.0002186
3545.46	0.000255
3557.03	0.000265
3568.6	0.0004519
3580.18	0.0006251
3591.75	0.0009787
3603.33	0.001596
3614.9	0.004366
3626.47	0.016436
3638.05	0.031076
3649.62	0.024566
3661.2	0.005436
3672.77	0.001566
3684.34	0.0008008
3695.92	0.0005956
3707.49	0.0004491
3719.07	0.0002657
3730.64	0.000202
3742.21	0.000221
3753.79	0.0002045
3765.36	0.0001565
3776.94	0.0001269
3788.51	9.587e-05
3800.08	0.0001787
3811.66	0.0001173
3823.23	0.0001306
3834.81	0.0001786
3846.38	0.0001757
3857.95	0.0001394
3869.53	0.0001549
3881.1	0.0001757
3892.68	0.0001397
3904.25	0.0001828
3915.82	0.0002104
3927.4	0.0002125
3938.97	0.000167
3950.55	0.0001997
3962.12	0.0002693
3973.69	0.0002712
3985.27	0.0001904
3996.84	0.0002742
