Infrared Spectrum: 3-CHLORO-2-METHYL PYRAZINE
Formula: C5 H5 Cl N2
CAS: 95-58-9
State: LIQUID
Boiling point: 79-85 C AT 31 mmHg
Class: COBLENTZ
Instrument: Not specified, most likely a prism, grating, or hybrid spectrometer.
Sampling: TRANSMISSION
Path length: 0.003 CM
Resolution: 4
Origin: WYANDOTTE CHEMICALS CORP., WYANDOTTE, MICHIGAN, USA
MICROMETERS	TRANSMITTANCE
2.027	0.95
2.06677	0.933
2.10654	0.935
2.14631	0.922
2.18609	0.917
2.22586	0.918
2.26563	0.933
2.3054	0.938
2.34517	0.94
2.38494	0.948
2.42471	0.937
2.46448	0.933
2.50426	0.935
2.54403	0.945
2.5838	0.948
2.62357	0.958
2.66334	0.958
2.70311	0.948
2.74288	0.922
2.78266	0.917
2.82243	0.894
2.8622	0.895
2.90197	0.902
2.94174	0.903
2.98151	0.903
3.02128	0.917
3.06106	0.908
3.10083	0.902
3.1406	0.889
3.18037	0.864
3.22014	0.766
3.25991	0.543
3.29968	0.678
3.33945	0.688
3.37923	0.733
3.419	0.809
3.45877	0.847
3.49854	0.857
3.53831	0.877
3.57808	0.9
3.61785	0.899
3.65763	0.889
3.6974	0.899
3.73717	0.93
3.77694	0.922
3.81671	0.942
3.85648	0.942
3.89625	0.94
3.93602	0.93
3.9758	0.933
4.01557	0.947
4.05534	0.942
4.09511	0.942
4.13488	0.935
4.17465	0.927
4.21442	0.935
4.2542	0.942
4.29397	0.93
4.33374	0.903
4.37351	0.938
4.41328	0.95
4.45305	0.956
4.49282	0.958
4.53259	0.95
4.57237	0.942
4.61214	0.958
4.65191	0.97
4.69168	0.958
4.73145	0.956
4.77122	0.955
4.81099	0.951
4.85077	0.961
4.89054	0.93
4.93031	0.92
4.97008	0.94
5.00985	0.942
5.04962	0.945
5.08939	0.96
5.12917	0.951
5.16894	0.928
5.20871	0.899
5.24848	0.879
5.28825	0.937
5.32802	0.948
5.36779	0.963
5.40756	0.953
5.44734	0.95
5.48711	0.923
5.52688	0.894
5.56665	0.899
5.60642	0.925
5.64619	0.948
5.68596	0.932
5.72574	0.925
5.76551	0.899
5.80528	0.903
5.84505	0.892
5.88482	0.887
5.92459	0.899
5.96436	0.899
6.00413	0.87
6.04391	0.872
6.08368	0.87
6.12345	0.882
6.16322	0.855
6.20299	0.85
6.24276	0.872
6.28253	0.849
6.32231	0.786
6.36208	0.779
6.40185	0.74
6.44162	0.743
6.48139	0.635
6.52116	0.473
6.56093	0.45
6.6007	0.637
6.64048	0.728
6.68025	0.697
6.72002	0.65
6.75979	0.609
6.79956	0.5
6.83933	0.211
6.8791	0.23
6.91888	0.145
6.95865	0.097
6.99842	0.14
7.03819	0.162
7.07796	0.198
7.11773	0.268
7.1575	0.17
7.19728	0.041
7.23705	0.038
7.27682	0.038
7.31659	0.064
7.35636	0.205
7.39613	0.331
7.4359	0.62
7.47567	0.746
7.51545	0.791
7.55522	0.802
7.59499	0.811
7.63476	0.819
7.67453	0.849
7.7143	0.857
7.75407	0.849
7.79385	0.841
7.83362	0.821
7.87339	0.817
7.91316	0.771
7.95293	0.773
7.9927	0.824
8.03247	0.829
8.07224	0.832
8.11202	0.819
8.15179	0.784
8.19156	0.635
8.23133	0.18
8.2711	0.39
8.31087	0.354
8.35064	0.059
8.39042	0.246
8.43019	0.541
8.46996	0.49
8.50973	0.473
8.5495	0.21
8.58927	0.208
8.62904	0.526
8.66881	0.649
8.70859	0.61
8.74836	0.672
8.78813	0.683
8.8279	0.619
8.86767	0.48
8.90744	0.336
8.94721	0.4
8.98699	0.468
9.02676	0.41
9.06653	0.22
9.1063	0.038
9.14607	0.031
9.18584	0.031
9.22561	0.056
9.26539	0.158
9.30516	0.112
9.34493	0.038
9.3847	0.041
9.42447	0.144
9.46424	0.324
9.50401	0.438
9.54378	0.448
9.58356	0.367
9.62333	0.298
9.6631	0.304
9.70287	0.443
9.74264	0.591
9.78241	0.649
9.82218	0.637
9.86196	0.639
9.90173	0.697
9.9415	0.728
9.98127	0.726
10.021	0.715
10.0608	0.667
10.1006	0.599
10.1404	0.481
10.1801	0.299
10.2199	0.165
10.2597	0.185
10.2994	0.246
10.3392	0.364
10.379	0.506
10.4188	0.632
10.4585	0.695
10.4983	0.751
10.5381	0.781
10.5778	0.799
10.6176	0.826
10.6574	0.831
10.6972	0.839
10.7369	0.842
10.7767	0.847
10.8165	0.847
10.8562	0.857
10.896	0.85
10.9358	0.846
10.9756	0.847
11.0153	0.836
11.0551	0.819
11.0949	0.814
11.1346	0.809
11.1744	0.791
11.2142	0.756
11.254	0.763
11.2937	0.779
11.3335	0.773
11.3733	0.751
11.413	0.715
11.4528	0.672
11.4926	0.594
11.5324	0.495
11.5721	0.384
11.6119	0.259
11.6517	0.172
11.6914	0.109
11.7312	0.067
11.771	0.044
11.8108	0.069
11.8505	0.175
11.8903	0.334
11.9301	0.495
11.9698	0.617
12.0096	0.698
12.0494	0.759
12.0892	0.799
12.1289	0.832
12.1687	0.841
12.2085	0.85
12.2482	0.857
12.288	0.864
12.3278	0.874
12.3676	0.88
12.4073	0.875
12.4471	0.88
12.4869	0.88
12.5266	0.88
12.5664	0.887
12.6062	0.877
12.6459	0.877
12.6857	0.877
12.7255	0.897
12.7653	0.89
12.805	0.902
12.8448	0.9
12.8846	0.897
12.9243	0.894
12.9641	0.899
13.0039	0.892
13.0437	0.892
13.0834	0.892
13.1232	0.892
13.163	0.882
13.2027	0.89
13.2425	0.874
13.2823	0.879
13.3221	0.879
13.3618	0.879
13.4016	0.889
13.4414	0.889
13.4811	0.884
13.5209	0.879
13.5607	0.867
13.6005	0.865
13.6402	0.88
13.68	0.88
13.7198	0.884
13.7595	0.88
13.7993	0.875
13.8391	0.872
13.8789	0.867
13.9186	0.867
13.9584	0.859
13.9982	0.857
14.0379	0.857
14.0777	0.857
14.1175	0.86
14.1573	0.862
14.197	0.867
14.2368	0.87
14.2766	0.872
14.3163	0.869
14.3561	0.877
14.3959	0.869
14.4357	0.867
14.4754	0.862
14.5152	0.859
14.555	0.852
14.5947	0.837
14.6345	0.832
14.6743	0.814
14.7141	0.791
14.7538	0.723
14.7936	0.609
14.8334	0.508
14.8731	0.495
14.9129	0.569
14.9527	0.637
14.9925	0.698
15.0322	0.723
15.072	0.748
15.1118	0.771
15.1515	0.789
15.1913	0.806
15.2311	0.799
15.2709	0.796
15.3106	0.798
15.3504	0.789
15.3902	0.784
15.4299	0.784
15.4697	0.779
15.5095	0.776
15.5493	0.764
15.589	0.773
15.6288	0.769
15.6686	0.759
15.7083	0.756
15.7481	0.758
15.7879	0.748
15.8277	0.75
15.8674	0.746
15.9072	0.746
15.947	0.736
15.9867	0.738
