Infrared Spectrum: PHENOL, 2,5-DIMETHYL-
Formula: C8 H10 O
CAS: 95-87-4
State: SOLUTION (10% CCl4 FOR 2.6-7.5, 10% CS2 FOR 7.5-22 MICRON)
Class: COBLENTZ III
Instrument: DOW KBr FOREPRISM-GRATING
Instrument parameters: BLAZED AT 3.5, 12.0, 20.0 MICRON AND CHANGED AT 5.0, 7.5, 14.9 MICRON
Sampling: TRANSMISSION
Path length: 0.011 CM, 0.011 CM
Resolution: 2
Origin: DOW CHEMICAL COMPANY
1/CM	TRANSMITTANCE
3800	0.8924
3791	0.8931
3782	0.894
3773	0.8946
3764	0.893
3755	0.8911
3746	0.8895
3737	0.8895
3728	0.8935
3719	0.8965
3710	0.8966
3701	0.8948
3692	0.889
3683	0.8825
3674	0.8805
3665	0.8784
3656	0.8752
3647	0.8712
3638	0.8578
3629	0.7318
3620	0.4526
3611	0.1768
3602	0.2776
3593	0.4715
3584	0.5752
3575	0.586
3566	0.5888
3557	0.5753
3548	0.521
3539	0.477
3530	0.4655
3521	0.456
3512	0.4374
3503	0.4189
3494	0.4025
3485	0.3916
3476	0.3888
3467	0.3902
3458	0.3932
3449	0.3975
3440	0.4032
3431	0.4095
3422	0.4167
3413	0.424
3404	0.4312
3395	0.4387
3386	0.4473
3377	0.456
3368	0.4666
3359	0.4778
3350	0.49
3341	0.5033
3332	0.517
3323	0.5325
3314	0.549
3305	0.568
3296	0.589
3287	0.6148
3278	0.6362
3269	0.6562
3260	0.6741
3251	0.6921
3242	0.7105
3233	0.7267
3224	0.743
3215	0.7562
3206	0.7697
3197	0.7817
3188	0.7936
3179	0.8042
3170	0.8128
3161	0.8195
3152	0.8218
3143	0.8231
3134	0.8288
3125	0.8285
3116	0.8214
3107	0.8125
3098	0.8037
3089	0.7934
3080	0.7808
3071	0.7411
3062	0.6362
3053	0.6493
3044	0.6247
3035	0.5134
3026	0.4844
3017	0.5235
3008	0.5745
2999	0.5785
2990	0.5626
2981	0.4935
2972	0.5015
2963	0.4882
2954	0.4349
2945	0.4307
2936	0.3724
2927	0.2523
2918	0.3668
2909	0.51
2900	0.5462
2891	0.5726
2882	0.605
2873	0.5869
2864	0.5127
2855	0.5892
2846	0.7283
2837	0.7771
2828	0.8058
2819	0.8252
2810	0.8373
2801	0.8462
2792	0.8532
2783	0.8581
2774	0.861
2765	0.8621
2756	0.858
2747	0.8471
2738	0.7826
2729	0.8384
2720	0.8482
2711	0.8504
2702	0.8524
2693	0.8549
2684	0.8573
2675	0.8599
2666	0.8628
2657	0.8657
2648	0.8677
2639	0.8686
2630	0.8659
2621	0.8616
2612	0.8623
2603	0.8625
2594	0.8624
2585	0.8618
2576	0.8584
2567	0.8563
2558	0.8574
2549	0.857
2540	0.854
2531	0.8471
2522	0.8445
2513	0.8517
2504	0.857
2495	0.8613
2486	0.8614
2477	0.8607
2468	0.8597
2459	0.8574
2450	0.8544
2441	0.8525
2432	0.8516
2423	0.8506
2414	0.8496
2405	0.8521
2396	0.8562
2387	0.8553
2378	0.8539
2369	0.8568
2360	0.859
2351	0.8547
2342	0.848
2333	0.8506
2324	0.8507
2315	0.8459
2306	0.8444
2297	0.8389
2288	0.8428
2279	0.849
2270	0.8549
2261	0.8597
2252	0.8646
2243	0.8684
2234	0.8698
2225	0.8699
2216	0.8701
2207	0.8704
2198	0.8707
2189	0.8714
2180	0.872
2171	0.8718
2162	0.8718
2153	0.8717
2144	0.8715
2135	0.8716
2126	0.8734
2117	0.8752
2108	0.8739
2099	0.8736
2090	0.8738
2081	0.8727
2072	0.8713
2063	0.8682
2054	0.8657
2045	0.8677
2036	0.8693
2027	0.8704
2018	0.8707
2009	0.8658
2000	0.8353
1991	0.8457
1982	0.8517
1973	0.8539
1964	0.8589
1955	0.8632
1946	0.8641
1937	0.8638
1928	0.8628
1919	0.861
1910	0.8586
1901	0.8556
1892	0.8489
1883	0.8296
1874	0.7854
1865	0.8051
1856	0.8358
1847	0.8391
1838	0.8354
1829	0.8411
1820	0.8451
1811	0.8458
1802	0.8462
1793	0.8466
1784	0.8491
1775	0.8554
1766	0.8571
1757	0.8542
1748	0.8451
1739	0.8311
1730	0.8278
1721	0.8298
1712	0.8309
1703	0.8325
1694	0.8312
1685	0.8292
1676	0.8302
1667	0.831
1658	0.8266
1649	0.8161
1640	0.7645
1631	0.3934
1622	0.4452
1613	0.6056
1604	0.5762
1595	0.3059
1586	0.1494
1577	0.2412
1568	0.4025
1559	0.4004
1550	0.3734
1541	0.3992
1532	0.401
1523	0.1693
1514	0.1222
1505	0.371
1496	0.5058
1487	0.5475
1478	0.474
1469	0.2928
1460	0.2255
1451	0.3346
1442	0.3673
1433	0.3955
1424	0.296
1415	0.1513
1406	0.5665
1397	0.7043
1388	0.6736
1379	0.5304
1370	0.7337
1361	0.7282
1352	0.6911
1343	0.6455
1334	0.5843
1325	0.5351
1316	0.4252
1307	0.3841
1298	0.3649
1289	0.3336
1280	0.1566
1271	0.1138
1262	0.3634
1253	0.4441
1244	0.2651
1235	0.1288
1226	0.0572
1217	0.4519
1208	0.6068
1199	0.5889
1190	0.5315
1181	0.3376
1172	0.2053
1163	0.4104
1154	0.2034
1145	0.2129
1136	0.6152
1127	0.601
1118	0.1225
1109	0.0215
1100	0.403
1091	0.6456
1082	0.7347
1073	0.7508
1064	0.7587
1055	0.7551
1046	0.7168
1037	0.5801
1028	0.6415
1019	0.7368
1010	0.7278
1001	0.6265
992	0.186
983	0.6139
974	0.7314
965	0.7747
956	0.78
947	0.7737
938	0.6988
929	0.397
920	0.749
911	0.7965
902	0.7997
893	0.7926
884	0.7665
875	0.7031
866	0.526
857	0.4584
848	0.4564
839	0.6056
830	0.7499
821	0.7385
812	0.5565
803	0.0521
794	0.4849
785	0.7168
776	0.7692
767	0.7706
758	0.7536
749	0.6775
740	0.764
731	0.7261
722	0.5335
713	0.7085
704	0.7454
695	0.7651
686	0.758
677	0.7495
668	0.7574
659	0.7321
650	0.7182
641	0.7357
632	0.7475
623	0.7512
614	0.7462
605	0.7418
596	0.7315
587	0.3804
578	0.6124
569	0.4675
560	0.6699
551	0.7015
542	0.713
533	0.7165
524	0.7197
515	0.7189
506	0.6995
497	0.6172
488	0.6899
479	0.6961
470	0.689
461	0.6684
