Infrared Spectrum: 5-Chloro-2-hydroxyaniline
Formula: C 6 H 6 Cl N O
CAS: 95-85-2
State: gas
Instrument: HP-GC/MS/IRD
Origin: NIST Mass Spectrometry Data Center
1/CM	ABSORBANCE
550	0.008106
562	0.011704
574	0.01477
586	0.01372
598	0.009464
610	0.0084
622	0.009002
634	0.011872
646	0.020748
658	0.02996
670	0.022848
682	0.017374
694	0.015204
706	0.014098
718	0.014
730	0.014518
742	0.014336
754	0.014602
766	0.022806
778	0.031052
790	0.03101
802	0.023968
814	0.015148
826	0.010654
838	0.014392
850	0.02093
862	0.01428
874	0.007686
886	0.007518
898	0.015694
910	0.018564
922	0.00588
934	0.001428
946	0.00077
958	0.000672
970	0.00049
982	0.000196
994	0.000238
1006	0.00049
1018	0.00077
1030	0.001204
1042	0.001764
1054	0.002072
1066	0.003612
1078	0.009632
1090	0.023352
1102	0.024654
1114	0.030268
1126	0.045066
1138	0.037506
1150	0.055958
1162	0.074704
1174	0.043302
1186	0.027146
1198	0.028294
1210	0.034832
1222	0.042224
1234	0.04403
1246	0.037408
1258	0.028238
1270	0.035672
1282	0.032956
1294	0.01834
1306	0.012432
1318	0.01701
1330	0.016744
1342	0.010108
1354	0.007378
1366	0.00546
1378	0.004144
1390	0.003374
1402	0.004494
1414	0.010668
1426	0.017094
1438	0.012698
1450	0.007518
1462	0.011116
1474	0.023884
1486	0.056784
1498	0.12215
1510	0.125524
1522	0.039466
1534	0.009072
1546	0.006258
1558	0.00714
1570	0.008526
1582	0.01113
1594	0.017948
1606	0.032102
1618	0.051422
1630	0.049966
1642	0.024836
1654	0.008932
1666	0.004368
1678	0.00343
1690	0.00329
1702	0.002632
1714	0.00189
1726	0.001484
1738	0.001358
1750	0.001078
1762	0.000574
1774	0.00049
1786	0.000798
1798	0.001106
1810	0.001064
1822	0.000728
1834	0.000658
1846	0.000728
1858	0.000476
1870	0.000154
1882	4.2e-05
1894	9.8e-05
1906	7e-05
1918	4.2e-05
1930	8.4e-05
1942	5.6e-05
1954	0
1966	5.6e-05
1978	8.4e-05
1990	0.000112
2002	0.000168
2014	0.000252
2026	0.000294
2038	0.00049
2050	0.000546
2062	0.000308
2074	0.000154
2086	0.00014
2098	0.000126
2110	0.000126
2122	0.000168
2134	0.000224
2146	0.00028
2158	0.000294
2170	0.000308
2182	0.00035
2194	0.000392
2206	0.000308
2218	0.000196
2230	0.000238
2242	0.000308
2254	0.000462
2266	0.000644
2278	0.000742
2290	0.000462
2302	0.00028
2314	0.000322
2326	0.000322
2338	0.000406
2350	0.000532
2362	0.000728
2374	0.000812
2386	0.000784
2398	0.00084
2410	0.000812
2422	0.000658
2434	0.000658
2446	0.000672
2458	0.000686
2470	0.000658
2482	0.000644
2494	0.000588
2506	0.000504
2518	0.000518
2530	0.000588
2542	0.000532
2554	0.000518
2566	0.000434
2578	0.000406
2590	0.000434
2602	0.000518
2614	0.00056
2626	0.000504
2638	0.00042
2650	0.000406
2662	0.000448
2674	0.000448
2686	0.000406
2698	0.000406
2710	0.000448
2722	0.000448
2734	0.000322
2746	0.00028
2758	0.000252
2770	0.000266
2782	0.000252
2794	0.000154
2806	0.000126
2818	9.8e-05
2830	0.000154
2842	0.000224
2854	0.000336
2866	0.000462
2878	0.000462
2890	0.000392
2902	0.000336
2914	0.000294
2926	0.000224
2938	0.00021
2950	0.000168
2962	9.8e-05
2974	0.00021
2986	0.000406
2998	0.000924
3010	0.001722
3022	0.00336
3034	0.00511
3046	0.004606
3058	0.00371
3070	0.002982
3082	0.002338
3094	0.002016
3106	0.001246
3118	0.000742
3130	0.000364
3142	0.000182
3154	0.00021
3166	0.00035
3178	0.00049
3190	0.000756
3202	0.000896
3214	0.000952
3226	0.000728
3238	0.000462
3250	0.00035
3262	0.000266
3274	0.000224
3286	0.00021
3298	0.000196
3310	0.000224
3322	0.000322
3334	0.000504
3346	0.001092
3358	0.00182
3370	0.002814
3382	0.004382
3394	0.00665
3406	0.010668
3418	0.012124
3430	0.00833
3442	0.004928
3454	0.003794
3466	0.003892
3478	0.004872
3490	0.007742
3502	0.011816
3514	0.013216
3526	0.011564
3538	0.008582
3550	0.006258
3562	0.005054
3574	0.00483
3586	0.004816
3598	0.00448
3610	0.003892
3622	0.003542
3634	0.004578
3646	0.012292
3658	0.029246
3670	0.022204
3682	0.004634
3694	0.001694
3706	0.001036
3718	0.000826
3730	0.000714
3742	0.000546
3754	0.000406
3766	0.000392
3778	0.00035
3790	0.000308
3802	0.000308
3814	0.000308
3826	0.000378
3838	0.000392
