Infrared Spectrum: 3-Chloro-2,5-dimethylpyrazine
Formula: C 6 H 7 Cl N 2
CAS: 95-89-6
State: gas
Instrument: HP-GC/MS/IRD
Origin: NIST Mass Spectrometry Data Center
1/CM	ABSORBANCE
550	7.92e-05
562	0.0003399
574	0.0006666
586	0.0002904
598	0.0001947
610	4.95e-05
622	1.32e-05
634	2.31e-05
646	0.0001584
658	0.0002772
670	0.0004026
682	0.0003465
694	7.59e-05
706	4.62e-05
718	3.63e-05
730	0.0005049
742	0.0014256
754	0.0015609
766	0.0006105
778	0.0002277
790	0.000198
802	0.0002574
814	0.0002772
826	0.0004521
838	0.0006336
850	0.0007029
862	0.0006633
874	0.000825
886	0.0021714
898	0.0053724
910	0.005214
922	0.0033099
934	0.0028017
946	0.0052635
958	0.0099627
970	0.00858
982	0.0036861
994	0.002277
1006	0.0020691
1018	0.0018777
1030	0.0020889
1042	0.0028314
1054	0.0048972
1066	0.0127281
1078	0.0281358
1090	0.0319704
1102	0.0165858
1114	0.0059796
1126	0.0024849
1138	0.0022671
1150	0.0032868
1162	0.0044121
1174	0.0025707
1186	0.0009603
1198	0.0015114
1210	0.0018084
1222	0.0016797
1234	0.0038907
1246	0.005346
1258	0.0034386
1270	0.0021813
1282	0.0020922
1294	0.0053064
1306	0.0176418
1318	0.0243375
1330	0.0200475
1342	0.0148731
1354	0.0085998
1366	0.0058509
1378	0.0058113
1390	0.0053757
1402	0.0035904
1414	0.0038016
1426	0.0073392
1438	0.0203313
1450	0.027522
1462	0.0141537
1474	0.0053229
1486	0.0040557
1498	0.0043659
1510	0.0049269
1522	0.0047388
1534	0.0037587
1546	0.0038247
1558	0.0049038
1570	0.0037686
1582	0.0015972
1594	0.000924
1606	0.0007425
1618	0.0006699
1630	0.0005676
1642	0.000495
1654	0.000429
1666	0.0003564
1678	0.0002079
1690	8.58e-05
1702	5.94e-05
1714	5.94e-05
1726	0.0001122
1738	0.0001518
1750	0.0001881
1762	0.0002904
1774	0.0004488
1786	0.0006072
1798	0.0004422
1810	0.0001749
1822	0.0001122
1834	7.59e-05
1846	5.94e-05
1858	2.31e-05
1870	7.26e-05
1882	8.25e-05
1894	6.93e-05
1906	6.93e-05
1918	7.59e-05
1930	8.25e-05
1942	8.91e-05
1954	0.0001122
1966	0.0001386
1978	0.0002409
1990	0.0003399
2002	0.0002541
2014	0.000132
2026	6.27e-05
2038	3.63e-05
2050	5.94e-05
2062	2.97e-05
2074	3.3e-05
2086	6.6e-06
2098	3.63e-05
2110	9.57e-05
2122	0.0002376
2134	0.0002244
2146	7.26e-05
2158	1.32e-05
2170	3.3e-06
2182	2.64e-05
2194	3.3e-05
2206	5.61e-05
2218	0
2230	2.64e-05
2242	3.96e-05
2254	1.65e-05
2266	3.63e-05
2278	7.59e-05
2290	0.0001254
2302	0.0002013
2314	0.0002706
2326	0.0003003
2338	0.0002343
2350	0.0001749
2362	0.0001584
2374	0.0001551
2386	0.0001419
2398	0.0001485
2410	0.0002046
2422	0.0001254
2434	0.0001122
2446	0.000132
2458	0.0002046
2470	0.0002013
2482	0.0001551
2494	8.25e-05
2506	5.28e-05
2518	7.92e-05
2530	8.25e-05
2542	9.57e-05
2554	8.91e-05
2566	7.59e-05
2578	9.24e-05
2590	0.0001254
2602	0.0001452
2614	0.0002112
2626	0.0001848
2638	0.0001419
2650	0.0001221
2662	0.0001056
2674	7.92e-05
2686	9.9e-05
2698	0.000132
2710	0.0002277
2722	0.000231
2734	0.0003069
2746	0.0003102
2758	0.0002508
2770	0.0001452
2782	0.0002013
2794	0.000264
2806	0.0003201
2818	0.0005247
2830	0.0006732
2842	0.0008712
2854	0.001221
2866	0.0016269
2878	0.0016335
2890	0.0014784
2902	0.001551
2914	0.0021912
2926	0.0042438
2938	0.0066165
2950	0.0052899
2962	0.003135
2974	0.0030921
2986	0.0031713
2998	0.0033165
3010	0.0030393
3022	0.0028743
3034	0.0041184
3046	0.0055374
3058	0.0042735
3070	0.0023067
3082	0.0014421
3094	0.0009339
3106	0.0006765
3118	0.0004851
3130	0.000462
3142	0.0003762
3154	0.0002211
3166	0.0001683
3178	0.0001254
3190	8.91e-05
3202	8.58e-05
3214	0.0001089
3226	8.25e-05
3238	8.58e-05
3250	8.91e-05
3262	9.57e-05
3274	7.92e-05
3286	8.58e-05
3298	4.62e-05
3310	7.26e-05
3322	0.0001155
3334	6.93e-05
3346	5.61e-05
3358	6.6e-05
3370	7.59e-05
3382	8.25e-05
3394	5.61e-05
3406	6.6e-05
3418	9.24e-05
3430	7.92e-05
3442	9.24e-05
3454	0.0001023
3466	8.58e-05
3478	8.25e-05
3490	0.0001155
3502	9.57e-05
3514	7.92e-05
3526	8.91e-05
3538	9.24e-05
3550	6.27e-05
3562	5.94e-05
3574	4.62e-05
3586	1.32e-05
3598	4.62e-05
3610	7.59e-05
3622	6.27e-05
3634	3.63e-05
3646	8.25e-05
3658	9.9e-06
3670	5.94e-05
3682	6.93e-05
3694	0.0001188
3706	5.61e-05
3718	6.93e-05
3730	4.29e-05
3742	9.57e-05
3754	7.26e-05
3766	8.91e-05
3778	5.61e-05
3790	5.94e-05
3802	7.26e-05
3814	0.0001254
3826	4.95e-05
3838	0.0001386
