Infrared Spectrum: Piperazine, 1,4-diamino-2-methyl-,
Formula: C5 H14 N4
CAS: 95-90-9
State: SOLID (OIL MULL)
Class: COBLENTZ III
Instrument: BAIRD (GRATING)
Instrument parameters: NaCl PRISM
Resolution: 2
Origin: WYANDOTTE CHEMICALS CORP.
1/CM	TRANSMITTANCE
626	0.5541
635	0.5412
644	0.6021
653	0.6212
662	0.6248
671	0.631
680	0.6258
689	0.6087
698	0.6005
707	0.5967
716	0.5918
725	0.6029
734	0.6223
743	0.5954
752	0.4344
761	0.4597
770	0.6958
779	0.7577
788	0.7663
797	0.7452
806	0.6527
815	0.2455
824	0.3226
833	0.6932
842	0.7668
851	0.7737
860	0.7921
869	0.7792
878	0.7236
887	0.4834
896	0.7471
905	0.6566
914	0.5551
923	0.6614
932	0.4444
941	0.3858
950	0.5917
959	0.3804
968	0.5534
977	0.6278
986	0.6487
995	0.5526
1004	0.2793
1013	0.4219
1022	0.506
1031	0.6515
1040	0.7671
1049	0.7844
1058	0.756
1067	0.6279
1076	0.4315
1085	0.3241
1094	0.179
1103	0.3289
1112	0.5356
1121	0.4652
1130	0.4208
1139	0.4181
1148	0.2725
1157	0.4195
1166	0.5266
1175	0.6009
1184	0.7446
1193	0.7991
1202	0.7829
1211	0.6871
1220	0.6253
1229	0.651
1238	0.7614
1247	0.7591
1256	0.6556
1265	0.4803
1274	0.5916
1283	0.5752
1292	0.6609
1301	0.6736
1310	0.6385
1319	0.5777
1328	0.5096
1337	0.4694
1346	0.3481
1355	0.2963
1364	0.3641
1373	0.2458
1382	0.1875
1391	0.137
1400	0.3994
1409	0.5627
1418	0.5909
1427	0.6592
1436	0.6192
1445	0.4983
1454	0.3166
1463	0.1376
1472	0.0924
1481	0.1204
1490	0.4129
1499	0.6391
1508	0.7225
1517	0.7735
1526	0.7908
1535	0.7971
1544	0.8038
1553	0.8071
1562	0.7829
1571	0.7852
1580	0.7537
1589	0.7259
1598	0.6757
1607	0.4845
1616	0.5553
1625	0.5886
1634	0.4744
1643	0.3614
1652	0.2496
1661	0.2157
1670	0.4756
1679	0.6903
1688	0.688
1697	0.6657
1706	0.6213
1715	0.6483
1724	0.7372
1733	0.8089
1742	0.8429
1751	0.8706
1760	0.8798
1769	0.888
1778	0.8935
1787	0.8988
1796	0.9037
1805	0.9082
1814	0.9115
1823	0.9147
1832	0.9172
1841	0.9183
1850	0.9196
1859	0.9208
1868	0.921
1877	0.92
1886	0.9192
1895	0.9188
1904	0.9184
1913	0.9182
1922	0.9181
1931	0.9173
1940	0.9142
1949	0.9111
1958	0.9086
1967	0.9064
1976	0.9049
1985	0.9014
1994	0.8961
2003	0.8905
2012	0.8851
2021	0.8801
2030	0.8783
2039	0.877
2048	0.877
2057	0.8778
2066	0.8787
2075	0.8797
2084	0.8808
2093	0.878
2102	0.8745
2111	0.8704
2120	0.8663
2129	0.8622
2138	0.8578
2147	0.8537
2156	0.8504
2165	0.8484
2174	0.8477
2183	0.8411
2192	0.8321
2201	0.8265
2210	0.8246
2219	0.8229
2228	0.8212
2237	0.8194
2246	0.8176
2255	0.8166
2264	0.8162
2273	0.818
2282	0.8238
2291	0.8345
2300	0.8431
2309	0.845
2318	0.8412
2327	0.8337
2336	0.8248
2345	0.8156
2354	0.8066
2363	0.7981
2372	0.7959
2381	0.8047
2390	0.82
2399	0.8327
2408	0.8359
2417	0.8341
2426	0.83
2435	0.8292
2444	0.8303
2453	0.8286
2462	0.8267
2471	0.8242
2480	0.8217
2489	0.8192
2498	0.8166
2507	0.8138
2516	0.8111
2525	0.8075
2534	0.8039
2543	0.8
2552	0.7948
2561	0.7896
2570	0.7839
2579	0.7779
2588	0.7711
2597	0.7623
2606	0.7508
2615	0.7377
2624	0.722
2633	0.7067
2642	0.6907
2651	0.6778
2660	0.6723
2669	0.668
2678	0.6617
2687	0.6514
2696	0.6365
2705	0.6174
2714	0.6005
2723	0.5837
2732	0.5654
2741	0.5467
2750	0.5268
2759	0.5072
2768	0.4874
2777	0.4654
2786	0.424
2795	0.3401
2804	0.2787
2813	0.2494
2822	0.2157
2831	0.1554
2840	0.1121
2849	0.0895
2858	0.0705
2867	0.0628
2876	0.059
2885	0.0566
2894	0.0547
2903	0.053
2912	0.0517
2921	0.0503
2930	0.0472
2939	0.0435
2948	0.0391
2957	0.0349
2966	0.0308
2975	0.0279
2984	0.0276
2993	0.0274
3002	0.0281
3011	0.0294
3020	0.0599
3029	0.1283
3038	0.1963
3047	0.2638
3056	0.3157
3065	0.3325
3074	0.3365
3083	0.3351
3092	0.3014
3101	0.2559
3110	0.2107
3119	0.1657
3128	0.1401
3137	0.1422
3146	0.1772
3155	0.2245
3164	0.2716
3173	0.3184
3182	0.3421
3191	0.3424
3200	0.3401
3209	0.3327
3218	0.3129
3227	0.2832
3236	0.2537
3245	0.2244
3254	0.1952
3263	0.1661
3272	0.1374
3281	0.1219
3290	0.1261
3299	0.1319
3308	0.1447
3317	0.1744
3326	0.2041
3335	0.2335
3344	0.2628
3353	0.2846
3362	0.2919
3371	0.2963
3380	0.3001
3389	0.3044
3398	0.3091
3407	0.314
3416	0.319
3425	0.324
3434	0.3306
3443	0.3372
3452	0.3458
3461	0.3558
3470	0.3682
3479	0.3817
3488	0.3917
3497	0.4019
3506	0.4266
3515	0.4511
3524	0.472
3533	0.4938
3542	0.5156
3551	0.5372
3560	0.5531
3569	0.5674
3578	0.585
3587	0.6101
3596	0.6402
3605	0.6678
3614	0.7021
3623	0.7256
3632	0.7498
3641	0.7661
3650	0.7776
3659	0.7876
3668	0.7971
3677	0.8055
3686	0.8096
3695	0.8132
3704	0.8153
3713	0.8174
3722	0.8194
3731	0.8213
3740	0.8232
3749	0.8251
3758	0.827
3767	0.8288
3776	0.8307
3785	0.832
3794	0.8333
3803	0.8345
3812	0.8351
3821	0.8346
3830	0.8338
3839	0.8324
3848	0.8311
3857	0.8295
3866	0.8279
3875	0.8261
3884	0.822
3893	0.8182
3902	0.8163
3911	0.8156
3920	0.8188
3929	0.8233
3938	0.8263
3947	0.8268
3956	0.8259
3965	0.8248
3974	0.8229
3983	0.8206
3992	0.8178
