Infrared Spectrum: Methidathion
Formula: C 6 H 11 N 2 O 4 P S 3
CAS: 950-37-8
State: gas
Instrument: HP-GC/MS/IRD
Origin: NIST Mass Spectrometry Data Center
1/CM	ABSORBANCE
550	0.0020584
562	0.0018724
574	0.0050654
586	0.011377
598	0.018073
610	0.00651
622	0.0039866
634	0.0070308
646	0.0167896
658	0.0416454
670	0.0169136
682	0.0063736
694	0.004557
706	0.0025544
718	0.001643
730	0.0020026
742	0.0017546
754	0.0019158
766	0.0030194
778	0.0046562
790	0.0098828
802	0.0173724
814	0.0235414
826	0.0240498
838	0.0125984
850	0.0051398
862	0.0018538
874	0.000775
886	0.000434
898	0.0004464
910	0.0001302
922	5.58e-05
934	0.0004092
946	0.0014012
958	0.0023808
970	0.0042408
982	0.0098394
994	0.0105772
1006	0.012648
1018	0.0294686
1030	0.0572012
1042	0.0569532
1054	0.0410006
1066	0.0240312
1078	0.0118482
1090	0.0073532
1102	0.0057846
1114	0.0049972
1126	0.0040796
1138	0.0037696
1150	0.004309
1162	0.0050716
1174	0.0070556
1186	0.0072726
1198	0.0064852
1210	0.0080848
1222	0.0139562
1234	0.0293446
1246	0.0455576
1258	0.0355818
1270	0.0365552
1282	0.0419554
1294	0.0274722
1306	0.0205716
1318	0.0161138
1330	0.013826
1342	0.0072354
1354	0.0039432
1366	0.0026722
1378	0.0019344
1390	0.0019282
1402	0.0029636
1414	0.0041726
1426	0.0034472
1438	0.0056792
1450	0.0054994
1462	0.0053196
1474	0.0035898
1486	0.0019406
1498	0.001302
1510	0.0010788
1522	0.0011098
1534	0.001395
1546	0.0021576
1558	0.0040052
1570	0.008711
1582	0.0316262
1594	0.061442
1606	0.0122264
1618	0.0036332
1630	0.0024986
1642	0.001953
1654	0.0015252
1666	0.001798
1678	0.002976
1690	0.0057288
1702	0.0130262
1714	0.0310558
1726	0.0570896
1738	0.0418872
1750	0.0140244
1762	0.004712
1774	0.0019716
1786	0.0010974
1798	0.0008432
1810	0.0008308
1822	0.0009424
1834	0.0010788
1846	0.0012276
1858	0.001271
1870	0.001085
1882	0.0008742
1894	0.0006634
1906	0.0006014
1918	0.0006386
1930	0.000682
1942	0.0005456
1954	0.00031
1966	0.0002108
1978	0.0001798
1990	0.0001922
2002	0.000217
2014	0.0002914
2026	0.0005022
2038	0.000837
2050	0.000899
2062	0.000806
2074	0.001054
2086	0.0003286
2098	6.82e-05
2110	4.96e-05
2122	1.24e-05
2134	6.2e-06
2146	8.06e-05
2158	0.0001736
2170	0.0002852
2182	0.000403
2194	0.0005022
2206	0.0006076
2218	0.0007564
2230	0.0007502
2242	0.0005642
2254	0.0002232
2266	0.0001426
2278	6.82e-05
2290	2.48e-05
2302	1.86e-05
2314	4.34e-05
2326	5.58e-05
2338	7.44e-05
2350	6.82e-05
2362	0.000155
2374	6.82e-05
2386	0
2398	0
2410	1.24e-05
2422	4.96e-05
2434	4.34e-05
2446	7.44e-05
2458	6.82e-05
2470	2.48e-05
2482	5.58e-05
2494	1.24e-05
2506	1.86e-05
2518	4.96e-05
2530	4.96e-05
2542	7.44e-05
2554	9.3e-05
2566	3.72e-05
2578	4.34e-05
2590	6.82e-05
2602	0.000124
2614	6.2e-05
2626	5.58e-05
2638	0.0001054
2650	0.000124
2662	8.06e-05
2674	6.2e-05
2686	6.82e-05
2698	3.72e-05
2710	8.06e-05
2722	9.92e-05
2734	2.48e-05
2746	1.24e-05
2758	1.86e-05
2770	8.68e-05
2782	0.0001178
2794	0.0002108
2806	0.000341
2818	0.000682
2830	0.0012028
2842	0.0025172
2854	0.0049786
2866	0.0026164
2878	0.0017608
2890	0.0018848
2902	0.0024614
2914	0.0028644
2926	0.0030814
2938	0.005053
2950	0.0131316
2962	0.014973
2974	0.0055242
2986	0.0042284
2998	0.004929
3010	0.0046562
3022	0.0044206
3034	0.00403
3046	0.002573
3058	0.001643
3070	0.001333
3082	0.001178
3094	0.000961
3106	0.000744
3118	0.0006138
3130	0.0005022
3142	0.000372
3154	0.0003286
3166	0.0003224
3178	0.0002294
3190	0.0001116
3202	5.58e-05
3214	8.06e-05
3226	4.34e-05
3238	9.3e-05
3250	5.58e-05
3262	3.72e-05
3274	4.34e-05
3286	6.2e-06
3298	2.48e-05
3310	8.06e-05
3322	0.0001364
3334	4.96e-05
3346	4.34e-05
3358	9.3e-05
3370	0.0001302
3382	0.000186
3394	0.0001736
3406	0.000248
3418	0.0004278
3430	0.0006324
3442	0.0006882
3454	0.0005394
3466	0.0003968
3478	0.0003286
3490	0.0002232
3502	0.0001488
3514	0.0001054
3526	0.0001426
3538	0.0001178
3550	0.000186
3562	0.0001488
3574	0.0001426
3586	0.000186
3598	0.0001426
3610	0.0001736
3622	0.0001488
3634	0.0001054
3646	9.3e-05
3658	0.0001054
3670	9.92e-05
3682	0.0001736
3694	8.06e-05
3706	0.000155
3718	0.0001178
3730	0.0001054
3742	0.0001116
3754	0.000155
3766	8.06e-05
3778	9.92e-05
3790	0.000155
3802	0.0001116
3814	0.0001178
3826	6.2e-05
3838	0.0001302
