Infrared Spectrum: 1-BENZYL-3-(10-CARBETHOXYDECYL) UREA
Formula: C21 H34 N2 O3
CAS: 95001-15-3
State: SOLID (KBr PRESSING)
Melting point: 97 C
Class: COBLENTZ
Instrument: Not specified, most likely a prism, grating, or hybrid spectrometer.
Sampling: TRANSMISSION
Resolution: 4
Origin: EASTMAN KODAK COMPANY, RESEARCH LABORATORIES, ROCHESTER, N.Y.
MICROMETERS	TRANSMITTANCE
2.193	0.756
2.22838	0.753
2.26377	0.753
2.29915	0.754
2.33454	0.756
2.36992	0.758
2.40531	0.758
2.44069	0.76
2.47608	0.765
2.51146	0.77
2.54685	0.772
2.58223	0.774
2.61762	0.776
2.653	0.784
2.68838	0.793
2.72377	0.76
2.75915	0.74
2.79454	0.694
2.82992	0.657
2.86531	0.636
2.90069	0.619
2.93608	0.476
2.97146	0.197
3.00685	0.342
3.04223	0.536
3.07762	0.656
3.113	0.698
3.14838	0.728
3.18377	0.714
3.21915	0.71
3.25454	0.7
3.28992	0.661
3.32531	0.698
3.36069	0.539
3.39608	0.172
3.43146	0.183
3.46685	0.483
3.50223	0.232
3.53762	0.779
3.573	0.767
3.60838	0.783
3.64377	0.79
3.67915	0.798
3.71454	0.811
3.74992	0.811
3.78531	0.813
3.82069	0.814
3.85608	0.818
3.89146	0.823
3.92685	0.83
3.96223	0.828
3.99762	0.827
4.033	0.83
4.06838	0.837
4.10377	0.835
4.13915	0.835
4.17454	0.835
4.20992	0.832
4.24531	0.835
4.28069	0.839
4.31608	0.837
4.35146	0.839
4.38685	0.843
4.42223	0.841
4.45762	0.843
4.493	0.843
4.52838	0.841
4.56377	0.843
4.59915	0.843
4.63454	0.844
4.66992	0.844
4.70531	0.85
4.74069	0.851
4.77608	0.851
4.81146	0.851
4.84685	0.851
4.88223	0.85
4.91762	0.848
4.953	0.846
4.98838	0.851
5.02377	0.848
5.05915	0.844
5.09454	0.843
5.12992	0.834
5.16531	0.851
5.20069	0.853
5.23608	0.851
5.27146	0.846
5.30685	0.843
5.34223	0.832
5.37762	0.841
5.413	0.851
5.44838	0.843
5.48377	0.839
5.51915	0.834
5.55454	0.827
5.58992	0.823
5.62531	0.802
5.66069	0.784
5.69608	0.723
5.73146	0.56
5.76685	0.241
5.80223	0.158
5.83762	0.497
5.873	0.67
5.90838	0.691
5.94377	0.721
5.97915	0.728
6.01454	0.705
6.04992	0.65
6.08531	0.506
6.12069	0.299
6.15608	0.054
6.19146	0.075
6.22685	0.259
6.26223	0.174
6.29762	0.088
6.333	0.068
6.36838	0.329
6.40377	0.465
6.43915	0.601
6.47454	0.64
6.50992	0.666
6.54531	0.641
6.58069	0.562
6.61608	0.582
6.65146	0.712
6.68685	0.65
6.72223	0.661
6.75762	0.421
6.793	0.474
6.82838	0.391
6.86377	0.574
6.89915	0.552
6.93454	0.552
6.96992	0.611
7.00531	0.626
7.04069	0.634
7.07608	0.721
7.11146	0.74
7.14685	0.714
7.18223	0.682
7.21762	0.641
7.253	0.544
7.28838	0.574
7.32377	0.631
7.35915	0.716
7.39454	0.707
7.42992	0.724
7.46531	0.679
7.50069	0.476
7.53608	0.671
7.57146	0.716
7.60685	0.691
7.64223	0.631
7.67762	0.604
7.713	0.62
7.74838	0.599
7.78377	0.495
7.81915	0.402
7.85454	0.239
7.88992	0.396
7.92531	0.53
7.96069	0.516
7.99608	0.52
8.03146	0.52
8.06685	0.402
8.10223	0.303
8.13762	0.356
8.173	0.518
8.20838	0.562
8.24377	0.481
8.27915	0.409
8.31454	0.5
8.34992	0.601
8.38531	0.483
8.42069	0.305
8.45608	0.271
8.49146	0.38
8.52685	0.49
8.56223	0.523
8.59762	0.55
8.633	0.592
8.66838	0.67
8.70377	0.703
8.73915	0.73
8.77454	0.753
8.80992	0.76
8.84531	0.761
8.88069	0.746
8.91608	0.691
8.95146	0.652
8.98685	0.656
9.02223	0.673
9.05762	0.691
9.093	0.7
9.12838	0.721
9.16377	0.737
9.19915	0.693
9.23454	0.663
9.26992	0.714
9.30531	0.737
9.34069	0.726
9.37608	0.701
9.41146	0.719
9.44685	0.733
9.48223	0.731
9.51762	0.719
9.553	0.701
9.58838	0.671
9.62377	0.649
9.65915	0.663
9.69454	0.679
9.72992	0.64
9.76531	0.708
9.80069	0.754
9.83608	0.781
9.87146	0.802
9.90685	0.813
9.94223	0.814
9.97762	0.818
10.013	0.828
10.0484	0.83
10.0838	0.825
10.1192	0.825
10.1545	0.825
10.1899	0.835
10.2253	0.837
10.2607	0.841
10.2961	0.839
10.3315	0.841
10.3668	0.844
10.4022	0.846
10.4376	0.846
10.473	0.846
10.5084	0.853
10.5438	0.853
10.5792	0.846
10.6145	0.839
10.6499	0.837
10.6853	0.825
10.7207	0.818
10.7561	0.825
10.7915	0.827
10.8268	0.83
10.8622	0.828
10.8976	0.827
10.933	0.828
10.9684	0.835
11.0038	0.837
11.0392	0.834
11.0745	0.841
11.1099	0.848
11.1453	0.855
11.1807	0.86
11.2161	0.864
11.2515	0.865
11.2868	0.865
11.3222	0.865
11.3576	0.865
11.393	0.862
11.4284	0.86
11.4638	0.851
11.4992	0.839
11.5345	0.82
11.5699	0.805
11.6053	0.804
11.6407	0.82
11.6761	0.843
11.7115	0.853
11.7468	0.857
11.7822	0.858
11.8176	0.858
11.853	0.858
11.8884	0.864
11.9238	0.864
11.9592	0.867
11.9945	0.871
12.0299	0.871
12.0653	0.865
12.1007	0.858
12.1361	0.851
12.1715	0.855
12.2068	0.858
12.2422	0.86
12.2776	0.865
12.313	0.862
12.3484	0.858
12.3838	0.853
12.4192	0.832
12.4545	0.837
12.4899	0.827
12.5253	0.827
12.5607	0.83
12.5961	0.855
12.6315	0.858
12.6668	0.864
12.7022	0.865
12.7376	0.865
12.773	0.864
12.8084	0.864
12.8438	0.853
12.8792	0.828
12.9145	0.827
12.9499	0.834
12.9853	0.843
13.0207	0.844
13.0561	0.846
13.0915	0.835
13.1268	0.825
13.1622	0.802
13.1976	0.738
13.233	0.654
13.2684	0.624
13.3038	0.723
13.3392	0.746
13.3745	0.742
13.4099	0.696
13.4453	0.622
13.4807	0.582
13.5161	0.606
13.5515	0.657
13.5868	0.726
13.6222	0.73
13.6576	0.73
13.693	0.703
13.7284	0.65
13.7638	0.64
13.7992	0.671
13.8345	0.71
13.8699	0.735
13.9053	0.74
13.9407	0.747
13.9761	0.751
14.0115	0.744
14.0468	0.719
14.0822	0.716
14.1176	0.703
14.153	0.693
14.1884	0.657
14.2238	0.604
14.2592	0.539
14.2945	0.442
14.3299	0.34
14.3653	0.262
14.4007	0.335
14.4361	0.481
14.4715	0.597
14.5068	0.661
14.5422	0.689
14.5776	0.698
14.613	0.693
14.6484	0.689
14.6838	0.68
14.7192	0.68
14.7545	0.673
14.7899	0.666
14.8253	0.656
14.8607	0.645
14.8961	0.64
14.9315	0.626
14.9668	0.62
15.0022	0.615
15.0376	0.603
15.073	0.592
15.1084	0.585
15.1438	0.582
15.1792	0.58
15.2145	0.574
15.2499	0.571
15.2853	0.569
15.3207	0.569
15.3561	0.569
15.3915	0.569
15.4268	0.571
15.4622	0.571
15.4976	0.573
15.533	0.582
15.5684	0.582
15.6038	0.583
15.6392	0.585
15.6745	0.601
15.7099	0.61
15.7453	0.613
15.7807	0.617
15.8161	0.626
15.8515	0.631
15.8868	0.636
15.9222	0.641
15.9576	0.645
15.993	0.645
