Infrared Spectrum: Cytidine, 2'-deoxy-
Formula: C9 H13 N3 O4
CAS: 951-77-9
State: SOLID (8.0 mg / 400 mg KBr DISC)
Class: COBLENTZ III
Instrument: PERKIN-ELMER 180 (GRATING)
Instrument parameters: GRATINGS: 2000, 1000, 500, 250 CM^-^1; FILTER CHANGE: 2970, 2000, 1485, 1000, 743, 500, 372, 250, 186 CM^-^1.
Sampling: TRANSMISSION
Path length: SCALE ATTENUATION INCREASED 10%
Resolution: 2
Origin: K. K. DEB-NCI FREDERICK CANCER RESEARCH CENTER
1/CM	TRANSMITTANCE
407	0.2698
416	0.2379
425	0.2301
434	0.234
443	0.2384
452	0.2562
461	0.2536
470	0.2508
479	0.2624
488	0.2837
497	0.3132
506	0.313
515	0.3222
524	0.3891
533	0.4013
542	0.3551
551	0.3614
560	0.3688
569	0.3947
578	0.4172
587	0.4409
596	0.4916
605	0.4269
614	0.3942
623	0.3841
632	0.3866
641	0.3772
650	0.3787
659	0.3736
668	0.3727
677	0.3528
686	0.3304
695	0.3312
704	0.3288
713	0.3433
722	0.3798
731	0.298
740	0.2859
749	0.28
758	0.3012
767	0.3173
776	0.3891
785	0.5002
794	0.4612
803	0.3748
812	0.2992
821	0.2662
830	0.2516
839	0.2574
848	0.2591
857	0.2818
866	0.3031
875	0.3017
884	0.2966
893	0.2874
902	0.3214
911	0.2782
920	0.2771
929	0.3073
938	0.3448
947	0.4241
956	0.4478
965	0.3501
974	0.2937
983	0.329
992	0.3579
1001	0.3508
1010	0.355
1019	0.4505
1028	0.5251
1037	0.4702
1046	0.5153
1055	0.5608
1064	0.4512
1073	0.4726
1082	0.5717
1091	0.5844
1100	0.5548
1109	0.4542
1118	0.3799
1127	0.3632
1136	0.3364
1145	0.2966
1154	0.2932
1163	0.3007
1172	0.3305
1181	0.3687
1190	0.3921
1199	0.4395
1208	0.4621
1217	0.3777
1226	0.3598
1235	0.3705
1244	0.3941
1253	0.378
1262	0.3895
1271	0.4174
1280	0.483
1289	0.5569
1298	0.4628
1307	0.4157
1316	0.3571
1325	0.3514
1334	0.3824
1343	0.3514
1352	0.3782
1361	0.4262
1370	0.448
1379	0.4368
1388	0.3729
1397	0.4118
1406	0.4616
1415	0.452
1424	0.4583
1433	0.3825
1442	0.3836
1451	0.4161
1460	0.4586
1469	0.5329
1478	0.617
1487	0.6896
1496	0.6962
1505	0.5898
1514	0.4301
1523	0.467
1532	0.5025
1541	0.43
1550	0.3139
1559	0.3395
1568	0.419
1577	0.4985
1586	0.5527
1595	0.5755
1604	0.6491
1613	0.7349
1622	0.7596
1631	0.6896
1640	0.681
1649	0.7324
1658	0.8697
1667	0.9321
1676	0.6178
1685	0.5464
1694	0.4752
1703	0.4276
1712	0.3756
1721	0.3404
1730	0.3077
1739	0.2828
1748	0.2635
1757	0.2462
1766	0.2308
1775	0.2162
1784	0.2037
1793	0.1928
1802	0.1847
1811	0.179
1820	0.1743
1829	0.171
1838	0.1679
1847	0.166
1856	0.1644
1865	0.1639
1874	0.1634
1883	0.1646
1892	0.1656
1901	0.1614
1910	0.1593
1919	0.1599
1928	0.1601
1937	0.1631
1946	0.1591
1955	0.16
1964	0.1618
1973	0.1658
1982	0.1668
1991	0.1631
2000	0.1601
2009	0.1585
2018	0.1574
2027	0.1576
2036	0.1586
2045	0.1601
2054	0.1617
2063	0.1634
2072	0.1652
2081	0.1664
2090	0.1671
2099	0.1679
2108	0.1693
2117	0.1711
2126	0.1726
2135	0.174
2144	0.1755
2153	0.177
2162	0.1786
2171	0.1802
2180	0.1819
2189	0.1835
2198	0.1848
2207	0.1856
2216	0.1864
2225	0.1872
2234	0.188
2243	0.1889
2252	0.1897
2261	0.1905
2270	0.1913
2279	0.1922
2288	0.193
2297	0.1938
2306	0.1949
2315	0.196
2324	0.1971
2333	0.1982
2342	0.1993
2351	0.2003
2360	0.2014
2369	0.2025
2378	0.2037
2387	0.2048
2396	0.2059
2405	0.2068
2414	0.2078
2423	0.2087
2432	0.2096
2441	0.2105
2450	0.2118
2459	0.2132
2468	0.2146
2477	0.216
2486	0.2179
2495	0.2209
2504	0.2239
2513	0.2268
2522	0.2299
2531	0.2328
2540	0.2363
2549	0.24
2558	0.2438
2567	0.2476
2576	0.2514
2585	0.2546
2594	0.2577
2603	0.2608
2612	0.2638
2621	0.2663
2630	0.2688
2639	0.2713
2648	0.2738
2657	0.2763
2666	0.2769
2675	0.2766
2684	0.2765
2693	0.2786
2702	0.2838
2711	0.2901
2720	0.2962
2729	0.3017
2738	0.3074
2747	0.3137
2756	0.3199
2765	0.3244
2774	0.329
2783	0.3321
2792	0.3352
2801	0.3381
2810	0.3411
2819	0.3429
2828	0.3472
2837	0.358
2846	0.3767
2855	0.3919
2864	0.4117
2873	0.4216
2882	0.3976
2891	0.3871
2900	0.4032
2909	0.4192
2918	0.4212
2927	0.4186
2936	0.4121
2945	0.409
2954	0.4084
2963	0.4064
2972	0.41
2981	0.4176
2990	0.4231
2999	0.4281
3008	0.4357
3017	0.4444
3026	0.4554
3035	0.4674
3044	0.4792
3053	0.4904
3062	0.5012
3071	0.5148
3080	0.5216
3089	0.5263
3098	0.5329
3107	0.5443
3116	0.549
3125	0.5501
3134	0.551
3143	0.5519
3152	0.5534
3161	0.556
3170	0.5611
3179	0.568
3188	0.5755
3197	0.5839
3206	0.595
3215	0.5985
3224	0.5908
3233	0.5804
3242	0.5704
3251	0.5598
3260	0.551
3269	0.5527
3278	0.5597
3287	0.5687
3296	0.5751
3305	0.5744
3314	0.5777
3323	0.5889
3332	0.6037
3341	0.6216
3350	0.6237
3359	0.6229
3368	0.6241
3377	0.6238
3386	0.6146
3395	0.6095
3404	0.611
3413	0.6176
3422	0.5703
3431	0.5332
3440	0.5033
3449	0.4824
3458	0.4645
3467	0.4494
3476	0.4384
3485	0.4331
3494	0.4138
3503	0.3883
3512	0.3706
3521	0.355
3530	0.3361
3539	0.3212
3548	0.3077
3557	0.2948
3566	0.2828
3575	0.2738
3584	0.2657
3593	0.2591
3602	0.253
3611	0.2473
3620	0.2433
3629	0.2393
3638	0.2371
3647	0.2349
3656	0.2328
3665	0.2314
3674	0.2301
3683	0.2297
3692	0.2294
3701	0.2246
3710	0.2286
3719	0.2297
3728	0.2298
3737	0.2302
3746	0.2309
3755	0.2315
3764	0.2317
3773	0.2325
3782	0.2319
