Infrared Spectrum: 3,4,5-Trimethoxyphenylacetic acid
Formula: C 11 H 14 O 5
CAS: 951-82-6
State: gas
Origin: EPA-IR VAPOR PHASE LIBRARY
1/CM	ABSORBANCE
549.9	0.00567
559.547	0.00657
569.193	0.00906
578.84	0.01254
588.486	0.01881
598.133	0.0244
607.779	0.02063
617.426	0.01628
627.072	0.01499
636.719	0.01375
646.365	0.01209
656.012	0.01061
665.658	0.00836
675.305	0.00617
684.951	0.00496
694.598	0.0042
704.245	0.00383
713.891	0.00354
723.538	0.0033879
733.184	0.0030554
742.831	0.0029109
752.477	0.0030063
762.124	0.0033878
771.77	0.00425
781.417	0.0066
791.063	0.00632
800.71	0.0034183
810.356	0.0031613
820.003	0.00547
829.649	0.00667
839.296	0.00562
848.943	0.00447
858.589	0.00381
868.236	0.00365
877.882	0.00385
887.529	0.004
897.175	0.00421
906.822	0.00463
916.468	0.0054
926.115	0.0058
935.761	0.00595
945.408	0.00671
955.054	0.00707
964.701	0.00691
974.347	0.00629
983.994	0.00615
993.64	0.0086
1003.29	0.01537
1012.93	0.02622
1022.58	0.02224
1032.23	0.01542
1041.87	0.01912
1051.52	0.01559
1061.17	0.01362
1070.81	0.01822
1080.46	0.02855
1090.11	0.04534
1099.75	0.07094
1109.4	0.10255
1119.05	0.10328
1128.69	0.08312
1138.34	0.06328
1147.99	0.03997
1157.63	0.02263
1167.28	0.01822
1176.92	0.01925
1186.57	0.02249
1196.22	0.02354
1205.86	0.02468
1215.51	0.02932
1225.16	0.04109
1234.8	0.05367
1244.45	0.04549
1254.1	0.02847
1263.74	0.01869
1273.39	0.01586
1283.04	0.01667
1292.68	0.01736
1302.33	0.01822
1311.98	0.02187
1321.62	0.03363
1331.27	0.04638
1340.92	0.03312
1350.56	0.01695
1360.21	0.01147
1369.86	0.01038
1379.5	0.00962
1389.15	0.00956
1398.79	0.01215
1408.44	0.02202
1418.09	0.03728
1427.73	0.03629
1437.38	0.0264
1447.03	0.02052
1456.67	0.0289
1466.32	0.02942
1475.97	0.02424
1485.61	0.03032
1495.26	0.04818
1504.91	0.04097
1514.55	0.01882
1524.2	0.01019
1533.85	0.00805
1543.49	0.00799
1553.14	0.00949
1562.79	0.01441
1572.43	0.02615
1582.08	0.03828
1591.73	0.03143
1601.37	0.01989
1611.02	0.01233
1620.67	0.00681
1630.31	0.00418
1639.96	0.001899
1649.6	0.00255612
1659.25	0.00357
1668.9	0.00361
1678.54	0.00361
1688.19	0.00386
1697.84	0.00422
1707.48	0.00449
1717.13	0.0053
1726.78	0.00698
1736.42	0.00962
1746.07	0.01348
1755.72	0.02127
1765.36	0.03739
1775.01	0.05254
1784.66	0.04924
1794.3	0.03758
1803.95	0.02434
1813.6	0.01284
1823.24	0.00718
1832.89	0.00464
1842.54	0.00353
1852.18	0.0029489
1861.83	0.0025949
1871.47	0.0023607
1881.12	0.002224
1890.77	0.002071
1900.41	0.001992
1910.06	0.001986
1919.71	0.002093
1929.35	0.002173
1939	0.002227
1948.65	0.0023805
1958.29	0.0026085
1967.94	0.0026445
1977.59	0.0026393
1987.23	0.0026598
1996.88	0.0028011
2006.53	0.0029347
2016.17	0.0030401
2025.82	0.0029588
2035.47	0.00253731
2045.11	0.002212
2054.76	0.002211
2064.41	0.00222
2074.05	0.002223
2083.7	0.002109
2093.35	0.001997
2102.99	0.00197
2112.64	0.002029
2122.28	0.002008
2131.93	0.001911
2141.58	0.001832
2151.22	0.001947
2160.87	0.001952
2170.52	0.002005
2180.16	0.002021
2189.81	0.002059
2199.46	0.002026
2209.1	0.002023
2218.75	0.001932
2228.4	0.001903
2238.04	0.001938
2247.69	0.001929
2257.34	0.00192
2266.98	0.001828
2276.63	0.001819
2286.28	0.001796
2295.92	0.001667
2305.57	0.00165
2315.22	0.001674
2324.86	0.001709
2334.51	0.00174
2344.16	0.001686
2353.8	0.001741
2363.45	0.00189
2373.09	0.001881
2382.74	0.001727
2392.39	0.001604
2402.03	0.001549
2411.68	0.001544
2421.33	0.001605
2430.97	0.001605
2440.62	0.001603
2450.27	0.00162
2459.91	0.001621
2469.56	0.001667
2479.21	0.001647
2488.85	0.001563
2498.5	0.00145
2508.15	0.00142
2517.79	0.00142
2527.44	0.00144
2537.09	0.0014
2546.73	0.001535
2556.38	0.001589
2566.03	0.001593
2575.67	0.001602
2585.32	0.001529
2594.96	0.001547
2604.61	0.001525
2614.26	0.001461
2623.9	0.00135
2633.55	0.00139
2643.2	0.00134
2652.84	0.00137
2662.49	0.00132
2672.14	0.0012
2681.78	0.00118
2691.43	0.00132
2701.08	0.00124
2710.72	0.00129
2720.37	0.00137
2730.02	0.00139
2739.66	0.00134
2749.31	0.0014
2758.96	0.00136
2768.6	0.001559
2778.25	0.001647
2787.9	0.001944
2797.54	0.002353
2807.19	0.0031704
2816.84	0.00479
2826.48	0.00856
2836.13	0.01612
2845.77	0.01668
2855.42	0.01145
2865.07	0.0088
2874.71	0.00922
2884.36	0.01057
2894.01	0.01175
2903.65	0.01229
2913.3	0.01388
2922.95	0.01696
2932.59	0.0233
2942.24	0.03549
2951.89	0.03357
2961.53	0.02354
2971.18	0.01836
2980.83	0.0156
2990.47	0.01693
3000.12	0.02131
3009.77	0.01824
3019.41	0.00952
3029.06	0.00571
3038.71	0.00454
3048.35	0.00425
3058	0.00416
3067.64	0.00405
3077.29	0.00346
3086.94	0.0025862
3096.58	0.002003
3106.23	0.001679
3115.88	0.00123
3125.52	0.00097
3135.17	0.0008
3144.82	0.00077
3154.46	0.00057
3164.11	0.00058
3173.76	0.00041
3183.4	0.00038
3193.05	0.00035
3202.7	0.00021
3212.34	0.00013
3221.99	0.00019
3231.64	0.00025
3241.28	0.00015
3250.93	6e-05
3260.58	1e-05
3270.22	0.00018
3279.87	0.00017
3289.52	0.00019
3299.16	0.00011
3308.81	0.0001
3318.45	0.00016
3328.1	0.00029
3337.75	0.00044
3347.39	0.00032
3357.04	0.00026
3366.69	0.00045
3376.33	0.00042
3385.98	0.0004
3395.63	0.00048
3405.27	0.00054
3414.92	0.00062
3424.57	0.00062
3434.21	0.00053
3443.86	0.00052
3453.51	0.00064
3463.15	0.00068
3472.8	0.00075
3482.45	0.00081
3492.09	0.00099
3501.74	0.00108
3511.39	0.00116
3521.03	0.001541
3530.68	0.001856
3540.33	0.0029274
3549.97	0.00452
3559.62	0.00722
3569.26	0.02324
3578.91	0.02044
3588.56	0.00393
3598.2	0.0030612
3607.85	0.001919
3617.5	0.00144
3627.14	0.0013
3636.79	0.00117
3646.44	0.00123
3656.08	0.00112
3665.73	0.00102
3675.38	0.001
3685.02	0.00108
3694.67	0.00094
3704.32	0.00087
3713.96	0.00099
3723.61	0.00093
3733.26	0.00097
3742.9	0.00105
3752.55	0.00105
3762.2	0.00098
3771.84	0.00101
3781.49	0.0011
3791.13	0.00099
3800.78	0.00095
3810.43	0.00111
3820.07	0.00113
3829.72	0.00112
3839.37	0.00116
3849.01	0.00112
3858.66	0.00122
3868.31	0.0011
3877.95	0.00109
3887.6	0.00121
3897.25	0.00116
3906.89	0.00101
3916.54	0.00109
3926.19	0.00119
3935.83	0.00119
3945.48	0.00118
3955.13	0.00117
3964.77	0.00135
3974.42	0.00123
3984.07	0.0013
3993.71	0.00128
