Infrared Spectrum: M-NITRO CARBANILIC ACID, n-UNDECYL ESTER
Formula: C18 H28 N2 O4
CAS: 95126-58-2
State: SOLID (1.7 mg / 200 mg KBr)
Class: COBLENTZ
Instrument: Not specified, most likely a grating spectrometer.
Sampling: TRANSMISSION
Resolution: 4
Origin: CITRUS EXPERIMENT STATION, UNIVERSITY OF FLORIDA (G. EDWARDS)
MICROMETERS	TRANSMITTANCE
2.033	0.329
2.06621	0.338
2.09942	0.341
2.13262	0.342
2.16583	0.343
2.19904	0.349
2.23225	0.354
2.26545	0.359
2.29866	0.359
2.33187	0.362
2.36508	0.365
2.39828	0.373
2.43149	0.383
2.4647	0.391
2.49791	0.397
2.53111	0.399
2.56432	0.401
2.59753	0.407
2.63074	0.407
2.66394	0.407
2.69715	0.407
2.73036	0.406
2.76357	0.403
2.79678	0.399
2.82998	0.395
2.86319	0.381
2.8964	0.318
2.92961	0.248
2.96281	0.393
2.99602	0.427
3.02923	0.44
3.06244	0.444
3.09564	0.444
3.12885	0.434
3.16206	0.431
3.19527	0.439
3.22847	0.442
3.26168	0.432
3.29489	0.41
3.3281	0.31
3.3613	0.189
3.39451	0.191
3.42772	0.294
3.46093	0.293
3.49413	0.403
3.52734	0.486
3.56055	0.498
3.59376	0.507
3.62697	0.52
3.66017	0.521
3.69338	0.524
3.72659	0.528
3.7598	0.533
3.793	0.536
3.82621	0.54
3.85942	0.544
3.89263	0.549
3.92583	0.557
3.95904	0.557
3.99225	0.561
4.02546	0.563
4.05866	0.567
4.09187	0.573
4.12508	0.584
4.15829	0.59
4.19149	0.59
4.2247	0.593
4.25791	0.594
4.29112	0.593
4.32433	0.592
4.35753	0.59
4.39074	0.594
4.42395	0.6
4.45716	0.601
4.49036	0.601
4.52357	0.608
4.55678	0.609
4.58999	0.613
4.62319	0.621
4.6564	0.625
4.68961	0.628
4.72282	0.628
4.75602	0.63
4.78923	0.633
4.82244	0.634
4.85565	0.634
4.88885	0.634
4.92206	0.636
4.95527	0.638
4.98848	0.637
5.02168	0.641
5.05489	0.642
5.0881	0.646
5.12131	0.65
5.15452	0.649
5.18772	0.65
5.22093	0.652
5.25414	0.652
5.28735	0.652
5.32055	0.649
5.35376	0.642
5.38697	0.641
5.42018	0.64
5.45338	0.638
5.48659	0.632
5.5198	0.62
5.55301	0.609
5.58621	0.585
5.61942	0.545
5.65263	0.505
5.68584	0.423
5.71904	0.341
5.75225	0.266
5.78546	0.28
5.81867	0.406
5.85188	0.545
5.88508	0.586
5.91829	0.598
5.9515	0.6
5.98471	0.59
6.01791	0.569
6.05112	0.547
6.08433	0.533
6.11754	0.52
6.15074	0.521
6.18395	0.515
6.21716	0.5
6.25037	0.501
6.28357	0.496
6.31678	0.409
6.34999	0.3
6.3832	0.272
6.4164	0.301
6.44961	0.377
6.48282	0.416
6.51603	0.5
6.54923	0.588
6.58244	0.596
6.61565	0.6
6.64886	0.581
6.68207	0.568
6.71527	0.535
6.74848	0.521
6.78169	0.541
6.8149	0.565
6.8481	0.569
6.88131	0.561
6.91452	0.544
6.94773	0.557
6.98093	0.644
7.01414	0.679
7.04735	0.685
7.08056	0.681
7.11376	0.674
7.14697	0.653
7.18018	0.636
7.21339	0.593
7.24659	0.525
7.2798	0.435
7.31301	0.288
7.34622	0.155
7.37943	0.171
7.41263	0.249
7.44584	0.357
7.47905	0.414
7.51226	0.439
7.54546	0.505
7.57867	0.589
7.61188	0.598
7.64509	0.584
7.67829	0.553
7.7115	0.475
7.74471	0.371
7.77792	0.452
7.81112	0.604
7.84433	0.644
7.87754	0.638
7.91075	0.598
7.94395	0.547
7.97716	0.442
8.01037	0.286
8.04358	0.181
8.07678	0.239
8.10999	0.367
8.1432	0.516
8.17641	0.609
8.20962	0.661
8.24282	0.695
8.27603	0.719
8.30924	0.741
8.34245	0.755
8.37565	0.759
8.40886	0.756
8.44207	0.751
8.47528	0.745
8.50848	0.734
8.54169	0.722
8.5749	0.725
8.60811	0.745
8.64131	0.76
8.67452	0.766
8.70773	0.775
8.74094	0.779
8.77414	0.78
8.80735	0.782
8.84056	0.782
8.87377	0.782
8.90698	0.774
8.94018	0.759
8.97339	0.715
9.0066	0.665
9.03981	0.589
9.07301	0.541
9.10622	0.549
9.13943	0.59
9.17264	0.609
9.20584	0.638
9.23905	0.682
9.27226	0.682
9.30547	0.646
9.33867	0.576
9.37188	0.549
9.40509	0.581
9.4383	0.66
9.4715	0.756
9.50471	0.795
9.53792	0.824
9.57113	0.835
9.60434	0.839
9.63754	0.841
9.67075	0.855
9.70396	0.876
9.73717	0.88
9.77037	0.881
9.80358	0.885
9.83679	0.885
9.87	0.881
9.9032	0.88
9.93641	0.877
9.96962	0.876
10.0028	0.889
10.036	0.897
10.0692	0.9
10.1024	0.901
10.1357	0.903
10.1689	0.903
10.2021	0.901
10.2353	0.901
10.2685	0.899
10.3017	0.899
10.3349	0.903
10.3681	0.907
10.4013	0.912
10.4345	0.911
10.4677	0.911
10.5009	0.896
10.5341	0.879
10.5674	0.851
10.6006	0.8
10.6338	0.739
10.667	0.743
10.7002	0.806
10.7334	0.872
10.7666	0.909
10.7998	0.925
10.833	0.932
10.8662	0.932
10.8994	0.93
10.9326	0.932
10.9658	0.933
10.9991	0.933
11.0323	0.93
11.0655	0.93
11.0987	0.928
11.1319	0.913
11.1651	0.903
11.1983	0.884
11.2315	0.837
11.2647	0.742
11.2979	0.66
11.3311	0.745
11.3643	0.896
11.3975	0.948
11.4308	0.96
11.464	0.97
11.4972	0.977
11.5304	0.98
11.5636	0.981
11.5968	0.981
11.63	0.981
11.6632	0.981
11.6964	0.982
11.7296	0.986
11.7628	0.984
11.796	0.985
11.8292	0.984
11.8625	0.977
11.8957	0.974
11.9289	0.97
11.9621	0.956
11.9953	0.934
12.0285	0.887
12.0617	0.83
12.0949	0.779
12.1281	0.828
12.1613	0.916
12.1945	0.956
12.2277	0.962
12.2609	0.957
12.2942	0.946
12.3274	0.933
12.3606	0.9
12.3938	0.852
12.427	0.784
12.4602	0.739
12.4934	0.772
12.5266	0.895
12.5598	0.952
12.593	0.97
12.6262	0.984
12.6594	0.985
12.6926	0.985
12.7259	0.984
12.7591	0.968
12.7923	0.961
12.8255	0.944
12.8587	0.917
12.8919	0.877
12.9251	0.831
12.9583	0.759
12.9915	0.664
13.0247	0.553
13.0579	0.537
13.0911	0.622
13.1243	0.689
13.1575	0.759
13.1908	0.832
13.224	0.917
13.2572	0.953
13.2904	0.957
13.3236	0.952
13.3568	0.949
13.39	0.93
13.4232	0.88
13.4564	0.837
13.4896	0.746
13.5228	0.589
13.556	0.447
13.5892	0.455
13.6225	0.569
13.6557	0.752
13.6889	0.848
13.7221	0.892
13.7553	0.891
13.7885	0.889
13.8217	0.893
13.8549	0.9
13.8881	0.934
13.9213	0.962
13.9545	0.981
13.9877	0.982
14.0209	0.984
14.0542	0.984
14.0874	0.982
14.1206	0.981
14.1538	0.977
14.187	0.972
14.2202	0.969
14.2534	0.957
14.2866	0.942
14.3198	0.926
14.353	0.917
14.3862	0.9
14.4194	0.877
14.4526	0.853
14.4859	0.82
14.5191	0.774
14.5523	0.747
14.5855	0.723
14.6187	0.723
14.6519	0.735
14.6851	0.75
14.7183	0.751
14.7515	0.746
14.7847	0.727
14.8179	0.714
14.8511	0.709
14.8843	0.707
14.9176	0.71
14.9508	0.719
14.984	0.733
15.0172	0.729
