Infrared Spectrum: PURINE, 2-(TRIFLUOROMETHYL)-
Formula: C6 H3 F3 N4
CAS: 95121-04-3
State: SOLID (0.9 mg / 650 mg KBr DISC)
Class: COBLENTZ III
Instrument: PERKIN-ELMER 21 (GRATING)
Instrument parameters: FILTER CHANGE ABOUT 980 CM^-^1
Sampling: TRANSMISSION
Resolution: 4
Origin: SOUTHERN RESEARCH INSTITUTE
1/CM	TRANSMITTANCE
602.511	0.774
611.191	0.8033
619.871	0.8541
628.552	0.8765
637.232	0.8804
645.912	0.8733
654.592	0.8655
663.273	0.8425
671.953	0.8291
680.633	0.7797
689.313	0.7715
697.994	0.829
706.674	0.823
715.354	0.8094
724.034	0.7896
732.715	0.7732
741.395	0.748
750.075	0.7405
758.755	0.711
767.436	0.4792
776.116	0.7755
784.796	0.7391
793.476	0.6946
802.157	0.5811
810.837	0.6323
819.517	0.6294
828.197	0.6507
836.877	0.633
845.558	0.6092
854.238	0.5795
862.918	0.5696
871.598	0.5538
880.279	0.5569
888.959	0.569
897.639	0.57
906.319	0.5481
915	0.5032
923.68	0.319
932.36	0.5026
941.04	0.5737
949.721	0.4827
958.401	0.3947
967.081	0.7031
975.761	0.78
984.442	0.7786
993.122	0.7699
1001.8	0.759
1010.48	0.7481
1019.16	0.7322
1027.84	0.7185
1036.52	0.7007
1045.2	0.6664
1053.88	0.6426
1062.56	0.616
1071.24	0.5748
1079.92	0.5197
1088.6	0.4587
1097.28	0.3326
1105.96	0.1651
1114.65	0.2473
1123.33	0.4324
1132.01	0.3407
1140.69	0.2298
1149.37	0.1432
1158.05	0.164
1166.73	0.2749
1175.41	0.2974
1184.09	0.22
1192.77	0.2457
1201.45	0.1541
1210.13	0.2851
1218.81	0.4345
1227.49	0.4438
1236.17	0.4593
1244.85	0.4864
1253.53	0.3275
1262.21	0.3761
1270.89	0.3445
1279.57	0.154
1288.25	0.3463
1296.93	0.4511
1305.61	0.5538
1314.29	0.6524
1322.97	0.6962
1331.65	0.6889
1340.33	0.6172
1349.01	0.4075
1357.69	0.5761
1366.37	0.6573
1375.05	0.6432
1383.73	0.5701
1392.41	0.4678
1401.09	0.3698
1409.77	0.3487
1418.45	0.5105
1427.13	0.5565
1435.81	0.4754
1444.49	0.4444
1453.17	0.3563
1461.85	0.3302
1470.54	0.58
1479.22	0.6182
1487.9	0.631
1496.58	0.5699
1505.26	0.6328
1513.94	0.6939
1522.62	0.716
1531.3	0.72
1539.98	0.727
1548.66	0.7147
1557.34	0.6476
1566.02	0.6564
1574.7	0.67
1583.38	0.6549
1592.06	0.6428
1600.74	0.5917
1609.42	0.39
1618.1	0.4292
1626.78	0.5783
1635.46	0.682
1644.14	0.7016
1652.82	0.703
1661.5	0.702
1670.18	0.7027
1678.86	0.701
1687.54	0.702
1696.22	0.703
1704.9	0.703
1713.58	0.704
1722.26	0.706
1730.94	0.7067
1739.62	0.708
1748.3	0.7101
1756.98	0.719
1765.66	0.723
1774.34	0.727
1783.02	0.728
1791.7	0.729
1800.38	0.73
1809.06	0.732
1817.74	0.733
1826.42	0.735
1835.11	0.742
1843.79	0.749
1852.47	0.749
1861.15	0.75
1869.83	0.747
1878.51	0.743
1887.19	0.7409
1895.87	0.739
1904.55	0.739
1913.23	0.744
1921.91	0.7496
1930.59	0.7684
1939.27	0.7716
1947.95	0.774
1956.63	0.7715
1965.31	0.775
1973.99	0.775
1982.67	0.7752
1991.35	0.779
2000.03	0.777
2008.71	0.776
2017.39	0.777
2026.07	0.777
2034.75	0.775
2043.43	0.772
2052.11	0.772
2060.79	0.772
2069.47	0.771
2078.15	0.769
2086.83	0.766
2095.51	0.762
2104.19	0.761
2112.87	0.761
2121.55	0.761
2130.23	0.76
2138.91	0.759
2147.59	0.758
2156.27	0.755
2164.95	0.749
2173.63	0.746
2182.31	0.745
2191	0.744
2199.68	0.741
2208.36	0.739
2217.04	0.734
2225.72	0.73
2234.4	0.727
2243.08	0.722
2251.76	0.718
2260.44	0.711
2269.12	0.702
2277.8	0.697
2286.48	0.691
2295.16	0.6799
2303.84	0.667
2312.52	0.654
2321.2	0.643
2329.88	0.639
2338.56	0.638
2347.24	0.632
2355.92	0.627
2364.6	0.627
2373.28	0.623
2381.96	0.616
2390.64	0.609
2399.32	0.5999
2408	0.593
2416.68	0.582
2425.36	0.575
2434.04	0.569
2442.72	0.565
2451.4	0.565
2460.08	0.566
2468.76	0.569
2477.44	0.5709
2486.12	0.54
2494.8	0.53
2503.48	0.517
2512.16	0.511
2520.84	0.506
2529.52	0.498
2538.2	0.491
2546.88	0.477
2555.57	0.469
2564.25	0.465
2572.93	0.4579
2581.61	0.453
2590.29	0.453
2598.97	0.455
2607.65	0.455
2616.33	0.455
2625.01	0.455
2633.69	0.458
2642.37	0.461
2651.05	0.458
2659.73	0.45
2668.41	0.439
2677.09	0.4269
2685.77	0.419
2694.45	0.416
2703.13	0.413
2711.81	0.413
2720.49	0.411
2729.17	0.414
2737.85	0.422
2746.53	0.419
2755.21	0.423
2763.89	0.424
2772.57	0.424
2781.25	0.424
2789.93	0.4199
2798.61	0.406
2807.29	0.4
2815.97	0.397
2824.65	0.403
2833.33	0.4181
2842.01	0.432
2850.69	0.44
2859.37	0.445
2868.05	0.446
2876.73	0.4611
2885.41	0.469
2894.09	0.469
2902.77	0.465
2911.46	0.467
2920.14	0.4751
2928.82	0.487
2937.5	0.491
2946.18	0.485
2954.86	0.477
2963.54	0.47
2972.22	0.474
2980.9	0.474
2989.58	0.466
2998.26	0.453
3006.94	0.444
3015.62	0.445
3024.3	0.449
3032.98	0.454
3041.66	0.46
3050.34	0.466
3059.02	0.461
3067.7	0.4489
3076.38	0.444
3085.06	0.4611
3093.74	0.4771
3102.42	0.483
3111.1	0.475
3119.78	0.455
3128.46	0.4591
3137.14	0.5041
3145.82	0.5371
3154.5	0.554
3163.18	0.565
3171.86	0.579
3180.54	0.588
3189.22	0.598
3197.9	0.601
3206.58	0.603
3215.26	0.608
3223.94	0.613
3232.62	0.622
3241.3	0.637
3249.98	0.641
3258.66	0.646
3267.34	0.648
3276.03	0.649
3284.71	0.651
3293.39	0.651
3302.07	0.651
3310.75	0.651
3319.43	0.649
3328.11	0.649
3336.79	0.648
3345.47	0.646
3354.15	0.644
3362.83	0.634
3371.51	0.627
3380.19	0.622
3388.87	0.619
3397.55	0.619
3406.23	0.622
3414.91	0.622
3423.59	0.622
3432.27	0.624
3440.95	0.629
3449.63	0.633
3458.31	0.64
3466.99	0.641
3475.67	0.641
3484.35	0.645
3493.03	0.651
3501.71	0.664
3510.39	0.671
3519.07	0.674
3527.75	0.676
3536.43	0.682
3545.11	0.692
3553.79	0.697
3562.47	0.703
3571.15	0.708
3579.83	0.714
3588.51	0.722
3597.19	0.728
3605.87	0.733
3614.55	0.74
3623.23	0.746
3631.91	0.748
3640.6	0.751
3649.28	0.751
3657.96	0.75
3666.64	0.751
3675.32	0.751
3684	0.753
3692.68	0.753
3701.36	0.754
3710.04	0.755
3718.72	0.755
3727.4	0.754
3736.08	0.755
3744.76	0.755
3753.44	0.754
3762.12	0.753
3770.8	0.755
3779.48	0.755
3788.16	0.755
3796.84	0.755
3805.52	0.754
