Infrared Spectrum: 3-Benzofurancarboxamide, N-cycloheptyl-2,3-dihydro-3-phenyl-,
Formula: C22 H25 N O2
CAS: 95133-29-2
State: SOLUTION 7% (CHCl3 FOR 2.5-12.5 microns)
Class: COBLENTZ
Instrument: PERKIN-ELMER 21 (GRATING)
Instrument parameters: FILTER AT ABOUT 10 MICRONS
Path length: 0.01 CM
Resolution: 2
Origin: ABBOTT LABORATORIES
1/CM	TRANSMITTANCE
802	1.0068
810	1.0022
818	0.9348
826	0.8216
834	0.7335
842	0.8869
850	0.9167
858	0.9206
866	0.9367
874	0.9355
882	0.9294
890	0.9212
898	0.9164
906	0.9149
914	0.9236
922	0.9262
930	0.8531
938	0.7671
946	0.7943
954	0.8209
962	0.7912
970	0.7462
978	0.6659
986	0.6714
994	0.7296
1002	0.799
1010	0.7453
1018	0.6943
1026	0.7208
1034	0.8036
1042	0.8371
1050	0.8284
1058	0.814
1066	0.7946
1074	0.7643
1082	0.7714
1090	0.8001
1098	0.7647
1106	0.7662
1114	0.8008
1122	0.8207
1130	0.8322
1138	0.816
1146	0.7884
1154	0.8167
1162	0.8326
1170	0.8154
1178	0.7926
1186	0.7551
1194	0.6966
1202	0.6389
1210	0.5819
1218	0.5257
1226	0.5057
1234	0.5476
1242	0.6363
1250	0.7238
1258	0.7966
1266	0.7688
1274	0.7061
1282	0.7855
1290	0.8371
1298	0.788
1306	0.7323
1314	0.7587
1322	0.8325
1330	0.8605
1338	0.8585
1346	0.8425
1354	0.8317
1362	0.8551
1370	0.883
1378	0.8954
1386	0.9006
1394	0.9017
1402	0.9122
1410	0.9141
1418	0.8908
1426	0.8445
1434	0.7223
1442	0.6082
1450	0.4803
1458	0.4571
1466	0.5207
1474	0.2226
1482	0.3557
1490	0.288
1498	0.215
1506	0.2282
1514	0.4625
1522	0.6982
1530	0.8453
1538	0.8725
1546	0.8792
1554	0.8798
1562	0.8724
1570	0.8363
1578	0.7923
1586	0.7086
1594	0.652
1602	0.7507
1610	0.7986
1618	0.8026
1626	0.7885
1634	0.7366
1642	0.5243
1650	0.3106
1658	0.1186
1666	0.2083
1674	0.4997
1682	0.7023
1690	0.7878
1698	0.8775
1706	0.8972
1714	0.9072
1722	0.9152
1730	0.9214
1738	0.9266
1746	0.9306
1754	0.9337
1762	0.9355
1770	0.9369
1778	0.9373
1786	0.9377
1794	0.9387
1802	0.9403
1810	0.945
1818	0.9518
1826	0.9567
1834	0.9594
1842	0.9597
1850	0.9566
1858	0.9527
1866	0.9486
1874	0.9439
1882	0.939
1890	0.9401
1898	0.9456
1906	0.951
1914	0.9466
1922	0.943
1930	0.9422
1938	0.9449
1946	0.9476
1954	0.9502
1962	0.9535
1970	0.959
1978	0.9617
1986	0.9623
1994	0.963
2002	0.9638
2010	0.9645
2018	0.9642
2026	0.9639
2034	0.9637
2042	0.9631
2050	0.9624
2058	0.9616
2066	0.961
2074	0.9608
2082	0.9605
2090	0.9603
2098	0.96
2106	0.9599
2114	0.9598
2122	0.9597
2130	0.9596
2138	0.9595
2146	0.959
2154	0.9586
2162	0.9583
2170	0.958
2178	0.9581
2186	0.9583
2194	0.9584
2202	0.9585
2210	0.9588
2218	0.9591
2226	0.9593
2234	0.9596
2242	0.96
2250	0.9602
2258	0.9599
2266	0.9596
2274	0.9595
2282	0.9598
2290	0.9605
2298	0.9614
2306	0.9626
2314	0.9639
2322	0.9651
2330	0.9663
2338	0.9674
2346	0.9687
2354	0.969
2362	0.9661
2370	0.9604
2378	0.9534
2386	0.9452
2394	0.9394
2402	0.935
2410	0.9331
2418	0.9328
2426	0.933
2434	0.9337
2442	0.9344
2450	0.9367
2458	0.9394
2466	0.9417
2474	0.9432
2482	0.9437
2490	0.9434
2498	0.9425
2506	0.9414
2514	0.9399
2522	0.9396
2530	0.9399
2538	0.9402
2546	0.9423
2554	0.944
2562	0.9442
2570	0.9441
2578	0.9436
2586	0.9429
2594	0.9407
2602	0.9386
2610	0.937
2618	0.9352
2626	0.9336
2634	0.9323
2642	0.9317
2650	0.9312
2658	0.9311
2666	0.9311
2674	0.931
2682	0.931
2690	0.9307
2698	0.9305
2706	0.9292
2714	0.9269
2722	0.9243
2730	0.9203
2738	0.9159
2746	0.9089
2754	0.8971
2762	0.8846
2770	0.8733
2778	0.8605
2786	0.8456
2794	0.8257
2802	0.7808
2810	0.7225
2818	0.6644
2826	0.6414
2834	0.6508
2842	0.6654
2850	0.6485
2858	0.5827
2866	0.5166
2874	0.451
2882	0.3938
2890	0.3885
2898	0.3978
2906	0.4685
2914	0.5473
2922	0.6256
2930	0.7036
2938	0.7472
2946	0.7395
2954	0.728
2962	0.7202
2970	0.7269
2978	0.7623
2986	0.7974
2994	0.8217
3002	0.8322
3010	0.8381
3018	0.8427
3026	0.8475
3034	0.8537
3042	0.8622
3050	0.874
3058	0.8951
3066	0.9096
3074	0.918
3082	0.9232
3090	0.9276
3098	0.9283
3106	0.9288
3114	0.9293
3122	0.9292
3130	0.9287
3138	0.9282
3146	0.9275
3154	0.9268
3162	0.9258
3170	0.9248
3178	0.9239
3186	0.9238
3194	0.9238
3202	0.9239
3210	0.9239
3218	0.924
3226	0.9241
3234	0.9242
3242	0.9243
3250	0.9244
3258	0.9245
3266	0.9247
3274	0.9248
3282	0.925
3290	0.9254
3298	0.9256
3306	0.926
3314	0.9264
3322	0.9266
3330	0.9271
3338	0.9277
3346	0.9281
3354	0.9286
3362	0.9292
3370	0.9297
3378	0.9304
3386	0.9312
3394	0.932
3402	0.9327
3410	0.9335
3418	0.9342
3426	0.935
3434	0.936
3442	0.9372
3450	0.9383
3458	0.9393
3466	0.9404
3474	0.9416
3482	0.9433
3490	0.945
3498	0.9466
3506	0.9479
3514	0.9489
3522	0.95
3530	0.951
3538	0.9521
3546	0.9528
3554	0.9536
3562	0.9544
3570	0.9551
3578	0.9559
3586	0.9566
3594	0.957
3602	0.9573
3610	0.9576
3618	0.958
3626	0.9583
3634	0.9586
3642	0.9589
3650	0.9591
3658	0.9591
3666	0.9591
3674	0.9591
3682	0.9592
3690	0.9592
3698	0.9592
3706	0.9592
3714	0.9592
3722	0.9592
3730	0.9591
3738	0.9589
3746	0.9588
3754	0.9586
3762	0.9585
3770	0.9583
3778	0.9581
3786	0.958
3794	0.9578
3802	0.9577
3810	0.9575
3818	0.9573
3826	0.9571
3834	0.957
3842	0.9567
3850	0.9566
3858	0.9564
3866	0.9562
3874	0.956
3882	0.9557
3890	0.9556
3898	0.9552
3906	0.9548
3914	0.9544
3922	0.954
3930	0.9537
3938	0.9533
3946	0.9529
3954	0.9525
3962	0.9521
3970	0.9518
3978	0.9514
3986	0.9511
3994	0.9507
