Infrared Spectrum: P-PHENYLAZO CARBANILIC ACID, n-NONYL ESTER
Formula: C22 H29 N3 O2
CAS: 95138-66-2
State: SOLID (1.5 mg / 100 mg KBr)
Melting point: 115-115.5 C
Class: COBLENTZ
Instrument: Not specified, most likely a grating spectrometer.
Sampling: TRANSMISSION
Resolution: 4
Origin: CITRUS EXPERIMENT STATION, UNIVERSITY OF FLORIDA (G. EDWARDS)
MICROMETERS	TRANSMITTANCE
2.02	0.877
2.05321	0.88
2.08642	0.881
2.11962	0.886
2.15283	0.886
2.18604	0.888
2.21925	0.892
2.25245	0.9
2.28566	0.902
2.31887	0.902
2.35208	0.901
2.38529	0.904
2.41849	0.908
2.4517	0.908
2.48491	0.906
2.51812	0.905
2.55132	0.91
2.58453	0.914
2.61774	0.913
2.65095	0.913
2.68416	0.916
2.71736	0.914
2.75057	0.918
2.78378	0.922
2.81699	0.924
2.85019	0.922
2.8834	0.914
2.91661	0.868
2.94982	0.656
2.98303	0.804
3.01623	0.908
3.04944	0.921
3.08265	0.93
3.11586	0.934
3.14906	0.934
3.18227	0.93
3.21548	0.917
3.24869	0.904
3.2819	0.92
3.3151	0.898
3.34831	0.704
3.38152	0.56
3.41473	0.765
3.44793	0.693
3.48114	0.769
3.51435	0.906
3.54756	0.916
3.58077	0.913
3.61397	0.918
3.64718	0.921
3.68039	0.926
3.7136	0.924
3.7468	0.924
3.78001	0.93
3.81322	0.93
3.84643	0.929
3.87964	0.93
3.91284	0.934
3.94605	0.932
3.97926	0.936
4.01247	0.938
4.04567	0.933
4.07888	0.942
4.11209	0.944
4.1453	0.941
4.17851	0.93
4.21171	0.942
4.24492	0.949
4.27813	0.949
4.31134	0.948
4.34454	0.946
4.37775	0.945
4.41096	0.948
4.44417	0.948
4.47738	0.948
4.51058	0.945
4.54379	0.948
4.577	0.95
4.61021	0.95
4.64341	0.95
4.67662	0.95
4.70983	0.942
4.74304	0.95
4.77625	0.949
4.80945	0.949
4.84266	0.952
4.87587	0.953
4.90908	0.946
4.94228	0.949
4.97549	0.95
5.0087	0.95
5.04191	0.944
5.07512	0.944
5.10832	0.945
5.14153	0.949
5.17474	0.938
5.20795	0.945
5.24115	0.942
5.27436	0.953
5.30757	0.948
5.34078	0.952
5.37399	0.95
5.40719	0.95
5.4404	0.945
5.47361	0.941
5.50682	0.937
5.54002	0.94
5.57323	0.942
5.60644	0.941
5.63965	0.936
5.67286	0.92
5.70606	0.877
5.73927	0.8
5.77248	0.728
5.80569	0.348
5.83889	0.497
5.8721	0.794
5.90531	0.896
5.93852	0.905
5.97173	0.905
6.00493	0.912
6.03814	0.922
6.07135	0.924
6.10456	0.922
6.13776	0.861
6.17097	0.701
6.20418	0.472
6.23739	0.66
6.2706	0.81
6.3038	0.864
6.33701	0.849
6.37022	0.718
6.40343	0.602
6.43663	0.353
6.46984	0.229
6.50305	0.386
6.53626	0.654
6.56947	0.725
6.60267	0.789
6.63588	0.806
6.66909	0.824
6.7023	0.821
6.7355	0.722
6.76871	0.692
6.80192	0.672
6.83513	0.802
6.86834	0.805
6.90154	0.668
6.93475	0.769
6.96796	0.846
7.00117	0.748
7.03437	0.566
7.06758	0.665
7.10079	0.845
7.134	0.852
7.16721	0.837
7.20041	0.832
7.23362	0.8
7.26683	0.822
7.30004	0.854
7.33324	0.874
7.36645	0.877
7.39966	0.874
7.43287	0.845
7.46608	0.808
7.49928	0.722
7.53249	0.705
7.5657	0.641
7.59891	0.557
7.63211	0.604
7.66532	0.625
7.69853	0.784
7.73174	0.828
7.76495	0.832
7.79815	0.821
7.83136	0.761
7.86457	0.708
7.89778	0.62
7.93098	0.602
7.96419	0.61
7.9974	0.53
8.03061	0.366
8.06382	0.176
8.09702	0.281
8.13023	0.462
8.16344	0.592
8.19665	0.68
8.22985	0.73
8.26306	0.764
8.29627	0.797
8.32948	0.821
8.36269	0.836
8.39589	0.812
8.4291	0.818
8.46231	0.857
8.49552	0.865
8.52872	0.868
8.56193	0.87
8.59514	0.845
8.62835	0.713
8.66156	0.632
8.69476	0.718
8.72797	0.705
8.76118	0.817
8.79439	0.857
8.82759	0.854
8.8608	0.87
8.89401	0.884
8.92722	0.878
8.96043	0.873
8.99363	0.849
9.02684	0.789
9.06005	0.797
9.09326	0.837
9.12646	0.801
9.15967	0.72
9.19288	0.741
9.22609	0.8
9.2593	0.837
9.2925	0.84
9.32571	0.761
9.35892	0.578
9.39213	0.622
9.42533	0.702
9.45854	0.665
9.49175	0.706
9.52496	0.79
9.55817	0.85
9.59137	0.862
9.62458	0.87
9.65779	0.889
9.691	0.89
9.7242	0.888
9.75741	0.884
9.79062	0.816
9.82383	0.85
9.85704	0.849
9.89024	0.861
9.92345	0.87
9.95666	0.868
9.98987	0.862
10.0231	0.882
10.0563	0.886
10.0895	0.88
10.1227	0.888
10.1559	0.9
10.1891	0.902
10.2223	0.898
10.2555	0.884
10.2887	0.874
10.3219	0.866
10.3552	0.865
10.3884	0.864
10.4216	0.857
10.4548	0.88
10.488	0.892
10.5212	0.893
10.5544	0.894
10.5876	0.902
10.6208	0.906
10.654	0.909
10.6872	0.909
10.7204	0.902
10.7536	0.898
10.7869	0.886
10.8201	0.866
10.8533	0.832
10.8865	0.845
10.9197	0.893
10.9529	0.905
10.9861	0.909
11.0193	0.909
11.0525	0.909
11.0857	0.912
11.1189	0.908
11.1521	0.905
11.1853	0.894
11.2186	0.892
11.2518	0.894
11.285	0.9
11.3182	0.904
11.3514	0.904
11.3846	0.905
11.4178	0.908
11.451	0.904
11.4842	0.897
11.5174	0.882
11.5506	0.878
11.5838	0.872
11.617	0.865
11.6503	0.852
11.6835	0.838
11.7167	0.833
11.7499	0.809
11.7831	0.782
11.8163	0.706
11.8495	0.593
11.8827	0.602
11.9159	0.74
11.9491	0.802
11.9823	0.802
12.0155	0.798
12.0487	0.813
12.082	0.844
12.1152	0.856
12.1484	0.874
12.1816	0.882
12.2148	0.885
12.248	0.882
12.2812	0.877
12.3144	0.865
12.3476	0.858
12.3808	0.866
12.414	0.886
12.4472	0.888
12.4805	0.888
12.5137	0.888
12.5469	0.885
12.5801	0.885
12.6133	0.886
12.6465	0.885
12.6797	0.884
12.7129	0.874
12.7461	0.87
12.7793	0.865
12.8125	0.858
12.8457	0.85
12.8789	0.856
12.9122	0.85
12.9454	0.825
12.9786	0.793
13.0118	0.733
13.045	0.634
13.0782	0.582
13.1114	0.61
13.1446	0.721
13.1778	0.793
13.211	0.808
13.2442	0.804
13.2774	0.808
13.3106	0.829
13.3439	0.832
13.3771	0.817
13.4103	0.81
13.4435	0.828
13.4767	0.845
13.5099	0.864
13.5431	0.864
13.5763	0.862
13.6095	0.854
13.6427	0.841
13.6759	0.836
13.7091	0.832
13.7423	0.817
13.7756	0.808
13.8088	0.789
13.842	0.777
13.8752	0.788
13.9084	0.782
13.9416	0.744
13.9748	0.729
14.008	0.77
14.0412	0.816
14.0744	0.833
14.1076	0.834
14.1408	0.84
14.174	0.836
14.2073	0.846
14.2405	0.84
14.2737	0.841
14.3069	0.838
14.3401	0.833
14.3733	0.833
14.4065	0.821
14.4397	0.81
14.4729	0.786
14.5061	0.749
14.5393	0.672
14.5725	0.621
14.6057	0.616
14.639	0.661
14.6722	0.729
14.7054	0.764
14.7386	0.805
14.7718	0.816
14.805	0.822
14.8382	0.822
14.8714	0.8
14.9046	0.781
14.9378	0.76
14.971	0.774
