Infrared Spectrum: P-PHENYL AZO CARBANILIC ACID, CINNAMYL ESTER
Formula: C22 H19 N3 O2
CAS: 95166-23-7
State: SOLID (1.5 mg / 100 mg KBr)
Melting point: 129-132 C
Class: COBLENTZ
Instrument: Not specified, most likely a grating spectrometer.
Sampling: TRANSMISSION
Resolution: 4
Origin: CITRUS EXPERIMENT STATION, UNIVERSITY OF FLORIDA (G. EDWARDS)
MICROMETERS	TRANSMITTANCE
2.027	0.515
2.06019	0.518
2.09338	0.52
2.12657	0.522
2.15976	0.524
2.19295	0.526
2.22614	0.53
2.25933	0.532
2.29252	0.534
2.32571	0.534
2.3589	0.532
2.39209	0.535
2.42528	0.538
2.45847	0.543
2.49166	0.546
2.52485	0.548
2.55804	0.548
2.59123	0.548
2.62442	0.548
2.65761	0.551
2.6908	0.555
2.72399	0.555
2.75717	0.555
2.79036	0.552
2.82355	0.546
2.85674	0.554
2.88993	0.55
2.92312	0.539
2.95631	0.451
2.9895	0.417
3.02269	0.512
3.05588	0.544
3.08907	0.554
3.12226	0.558
3.15545	0.56
3.18864	0.558
3.22183	0.546
3.25502	0.53
3.28821	0.55
3.3214	0.554
3.35459	0.54
3.38778	0.539
3.42097	0.559
3.45416	0.558
3.48735	0.571
3.52054	0.579
3.55373	0.582
3.58692	0.575
3.62011	0.579
3.6533	0.586
3.68649	0.584
3.71968	0.584
3.75287	0.584
3.78606	0.584
3.81925	0.586
3.85244	0.588
3.88563	0.59
3.91882	0.592
3.95201	0.594
3.9852	0.594
4.01839	0.595
4.05158	0.596
4.08477	0.596
4.11796	0.598
4.15115	0.599
4.18434	0.6
4.21752	0.6
4.25071	0.6
4.2839	0.6
4.31709	0.6
4.35028	0.6
4.38347	0.599
4.41666	0.599
4.44985	0.599
4.48304	0.6
4.51623	0.602
4.54942	0.604
4.58261	0.606
4.6158	0.607
4.64899	0.608
4.68218	0.611
4.71537	0.612
4.74856	0.612
4.78175	0.612
4.81494	0.612
4.84813	0.611
4.88132	0.612
4.91451	0.615
4.9477	0.615
4.98089	0.615
5.01408	0.612
5.04727	0.611
5.08046	0.611
5.11365	0.61
5.14684	0.61
5.18003	0.611
5.21322	0.611
5.24641	0.612
5.2796	0.614
5.31279	0.616
5.34598	0.619
5.37917	0.62
5.41236	0.62
5.44555	0.618
5.47874	0.616
5.51193	0.616
5.54512	0.616
5.57831	0.616
5.6115	0.615
5.64468	0.61
5.67787	0.596
5.71106	0.558
5.74425	0.524
5.77744	0.459
5.81063	0.281
5.84382	0.287
5.87701	0.368
5.9102	0.508
5.94339	0.542
5.97658	0.552
6.00977	0.576
6.04296	0.596
6.07615	0.592
6.10934	0.592
6.14253	0.566
6.17572	0.528
6.20891	0.389
6.2421	0.36
6.27529	0.485
6.30848	0.555
6.34167	0.58
6.37486	0.539
6.40805	0.469
6.44124	0.312
6.47443	0.249
6.50762	0.279
6.54081	0.349
6.574	0.403
6.60719	0.449
6.64038	0.473
6.67357	0.488
6.70676	0.504
6.73995	0.532
6.77314	0.539
6.80633	0.512
6.83952	0.512
6.87271	0.493
6.9059	0.468
6.93909	0.52
6.97228	0.559
7.00547	0.543
7.03866	0.429
7.07185	0.387
7.10503	0.502
7.13822	0.534
7.17141	0.544
7.2046	0.55
7.23779	0.523
7.27098	0.519
7.30417	0.532
7.33736	0.555
7.37055	0.562
7.40374	0.566
7.43693	0.555
7.47012	0.544
7.50331	0.515
7.5365	0.488
7.56969	0.449
7.60288	0.361
7.63607	0.36
7.66926	0.423
7.70245	0.489
7.73564	0.528
7.76883	0.539
7.80202	0.547
7.83521	0.55
7.8684	0.543
7.90159	0.522
7.93478	0.471
7.96797	0.403
8.00116	0.324
8.03435	0.257
8.06754	0.271
8.10073	0.287
8.13392	0.288
8.16711	0.288
8.2003	0.313
8.23349	0.359
8.26668	0.399
8.29987	0.429
8.33306	0.459
8.36625	0.481
8.39944	0.485
8.43263	0.489
8.46582	0.506
8.49901	0.522
8.53219	0.532
8.56538	0.531
8.59857	0.492
8.63176	0.451
8.66495	0.472
8.69814	0.492
8.73133	0.472
8.76452	0.508
8.79771	0.526
8.8309	0.535
8.86409	0.53
8.89728	0.515
8.93047	0.484
8.96366	0.477
8.99685	0.479
9.03004	0.471
9.06323	0.499
9.09642	0.515
9.12961	0.527
9.1628	0.528
9.19599	0.526
9.22918	0.535
9.26237	0.534
9.29556	0.502
9.32875	0.465
9.36194	0.477
9.39513	0.445
9.42832	0.42
9.46151	0.416
9.4947	0.421
9.52789	0.44
9.56108	0.453
9.59427	0.448
9.62746	0.445
9.66065	0.464
9.69384	0.484
9.72703	0.497
9.76022	0.51
9.79341	0.507
9.8266	0.506
9.85979	0.507
9.89298	0.519
9.92617	0.526
9.95935	0.526
9.99254	0.522
10.0257	0.528
10.0589	0.53
10.0921	0.511
10.1253	0.491
10.1585	0.489
10.1917	0.491
10.2249	0.492
10.2581	0.449
10.2913	0.405
10.3244	0.388
10.3576	0.416
10.3908	0.456
10.424	0.484
10.4572	0.511
10.4904	0.518
10.5236	0.523
10.5568	0.53
10.59	0.538
10.6232	0.536
10.6563	0.53
10.6895	0.531
10.7227	0.534
10.7559	0.536
10.7891	0.528
10.8223	0.519
10.8555	0.516
10.8887	0.519
10.9219	0.523
10.955	0.534
10.9882	0.539
11.0214	0.546
11.0546	0.55
11.0878	0.55
11.121	0.552
11.1542	0.554
11.1874	0.554
11.2206	0.554
11.2538	0.554
11.2869	0.554
11.3201	0.554
11.3533	0.554
11.3865	0.554
11.4197	0.552
11.4529	0.55
11.4861	0.544
11.5193	0.539
11.5525	0.538
11.5857	0.539
11.6188	0.543
11.652	0.542
11.6852	0.534
11.7184	0.515
11.7516	0.483
11.7848	0.465
11.818	0.431
11.8512	0.399
11.8844	0.395
11.9176	0.411
11.9507	0.44
11.9839	0.463
12.0171	0.477
12.0503	0.493
12.0835	0.511
12.1167	0.518
12.1499	0.524
12.1831	0.527
12.2163	0.531
12.2494	0.534
12.2826	0.536
12.3158	0.536
12.349	0.532
12.3822	0.524
12.4154	0.518
12.4486	0.519
12.4818	0.52
12.515	0.538
12.5482	0.543
12.5813	0.547
12.6145	0.55
12.6477	0.55
12.6809	0.551
12.7141	0.551
12.7473	0.551
12.7805	0.55
12.8137	0.546
12.8469	0.542
12.8801	0.531
12.9132	0.511
12.9464	0.499
12.9796	0.473
13.0128	0.431
13.046	0.401
13.0792	0.389
13.1124	0.403
13.1456	0.436
13.1788	0.453
13.212	0.469
13.2451	0.472
13.2783	0.472
13.3115	0.471
13.3447	0.472
13.3779	0.476
13.4111	0.483
13.4443	0.479
13.4775	0.455
13.5107	0.449
13.5439	0.452
13.577	0.461
13.6102	0.48
13.6434	0.491
13.6766	0.502
13.7098	0.515
13.743	0.52
13.7762	0.531
13.8094	0.536
13.8426	0.539
13.8757	0.539
13.9089	0.53
13.9421	0.52
13.9753	0.511
14.0085	0.515
14.0417	0.523
14.0749	0.53
14.1081	0.536
14.1413	0.54
14.1745	0.546
14.2076	0.548
14.2408	0.552
14.274	0.551
14.3072	0.546
14.3404	0.526
14.3736	0.507
14.4068	0.481
14.44	0.457
14.4732	0.431
14.5064	0.412
14.5395	0.393
14.5727	0.371
14.6059	0.373
14.6391	0.393
14.6723	0.424
14.7055	0.461
14.7387	0.497
14.7719	0.516
14.8051	0.534
14.8383	0.542
14.8714	0.536
14.9046	0.535
14.9378	0.534
14.971	0.546
15.0042	0.548
