Infrared Spectrum: TRANS-1,3-CYCLOBUTANEDIOL-2,2,4,4-TETRAMETHYL-, DIBENZOATE
Formula: C22 H24 O4
CAS: 95164-71-9
State: SOLID (KBr PELLET)
Boiling point: 135 C
Class: COBLENTZ
Instrument: Not specified, most likely a prism, grating, or hybrid spectrometer.
Sampling: TRANSMISSION
Resolution: 4
Origin: TENNESSEE EASTMAN COMPANY, RESEARCH LABORATORIES
MICROMETERS	TRANSMITTANCE
2.02	0.782
2.05976	0.782
2.09951	0.78
2.13927	0.78
2.17903	0.784
2.21878	0.785
2.25854	0.789
2.29829	0.79
2.33805	0.795
2.37781	0.799
2.41756	0.803
2.45732	0.81
2.49708	0.818
2.53683	0.823
2.57659	0.827
2.61634	0.832
2.6561	0.84
2.69586	0.847
2.73561	0.845
2.77537	0.847
2.81513	0.843
2.85488	0.842
2.89464	0.838
2.9344	0.837
2.97415	0.837
3.01391	0.847
3.05366	0.863
3.09342	0.883
3.13318	0.893
3.17293	0.908
3.21269	0.93
3.25245	0.91
3.2922	0.918
3.33196	0.878
3.37172	0.584
3.41147	0.759
3.45123	0.735
3.49098	0.83
3.53074	0.847
3.5705	0.862
3.61025	0.867
3.65001	0.873
3.68977	0.877
3.72952	0.883
3.76928	0.888
3.80903	0.888
3.84879	0.892
3.88855	0.893
3.9283	0.9
3.96806	0.901
4.00782	0.908
4.04757	0.91
4.08733	0.913
4.12709	0.916
4.16684	0.916
4.2066	0.918
4.24635	0.918
4.28611	0.916
4.32587	0.916
4.36562	0.923
4.40538	0.928
4.44514	0.933
4.48489	0.935
4.52465	0.94
4.5644	0.94
4.60416	0.941
4.64392	0.943
4.68367	0.943
4.72343	0.946
4.76319	0.95
4.80294	0.955
4.8427	0.953
4.88246	0.953
4.92221	0.953
4.96197	0.955
5.00172	0.955
5.04148	0.938
5.08124	0.916
5.12099	0.941
5.16075	0.946
5.20051	0.928
5.24026	0.93
5.28002	0.948
5.31977	0.953
5.35953	0.955
5.39929	0.953
5.43904	0.951
5.4788	0.92
5.51856	0.918
5.55831	0.918
5.59807	0.898
5.63783	0.903
5.67758	0.906
5.71734	0.842
5.75709	0.732
5.79685	0.305
5.83661	0.078
5.87636	0.398
5.91612	0.715
5.95588	0.805
5.99563	0.827
6.03539	0.863
6.07515	0.873
6.1149	0.901
6.15466	0.903
6.19441	0.873
6.23417	0.666
6.27393	0.858
6.31368	0.799
6.35344	0.905
6.3932	0.913
6.43295	0.921
6.47271	0.921
6.51246	0.923
6.55222	0.92
6.59198	0.923
6.63173	0.921
6.67149	0.843
6.71125	0.893
6.751	0.81
6.79076	0.591
6.83052	0.539
6.87027	0.37
6.91003	0.735
6.94978	0.785
6.98954	0.802
7.0293	0.805
7.06905	0.818
7.10881	0.812
7.14857	0.78
7.18832	0.724
7.22808	0.401
7.26783	0.357
7.30759	0.677
7.34735	0.676
7.3871	0.74
7.42686	0.739
7.46662	0.735
7.50637	0.699
7.54613	0.624
7.58589	0.441
7.62564	0.42
7.6654	0.621
7.70515	0.493
7.74491	0.322
7.78467	0.091
7.82442	0.053
7.86418	0.051
7.90394	0.049
7.94369	0.079
7.98345	0.159
8.0232	0.421
8.06296	0.566
8.10272	0.659
8.14247	0.732
8.18223	0.752
8.22199	0.754
8.26174	0.75
8.3015	0.715
8.34126	0.715
8.38101	0.715
8.42077	0.697
8.46052	0.504
8.50028	0.41
8.54004	0.591
8.57979	0.606
8.61955	0.621
8.65931	0.639
8.69906	0.672
8.73882	0.689
8.77858	0.679
8.81833	0.598
8.85809	0.463
8.89784	0.259
8.9376	0.119
8.97736	0.064
9.01711	0.069
9.05687	0.134
9.09663	0.307
9.13638	0.496
9.17614	0.598
9.21589	0.634
9.25565	0.612
9.29541	0.363
9.33516	0.313
9.37492	0.583
9.41468	0.684
9.45443	0.72
9.49419	0.727
9.53395	0.73
9.5737	0.727
9.61346	0.664
9.65321	0.378
9.69297	0.164
9.73273	0.443
9.77248	0.586
9.81224	0.563
9.852	0.393
9.89175	0.242
9.93151	0.325
9.97126	0.239
10.011	0.466
10.0508	0.564
10.0905	0.598
10.1303	0.576
10.17	0.583
10.2098	0.652
10.2496	0.681
10.2893	0.704
10.3291	0.712
10.3688	0.71
10.4086	0.686
10.4483	0.654
10.4881	0.686
10.5279	0.707
10.5676	0.715
10.6074	0.72
10.6471	0.715
10.6869	0.682
10.7266	0.707
10.7664	0.725
10.8061	0.73
10.8459	0.732
10.8857	0.734
10.9254	0.734
10.9652	0.735
11.0049	0.735
11.0447	0.729
11.0844	0.702
11.1242	0.632
11.164	0.619
11.2037	0.677
11.2435	0.714
11.2832	0.722
11.323	0.73
11.3627	0.735
11.4025	0.74
11.4422	0.747
11.482	0.752
11.5218	0.754
11.5615	0.757
11.6013	0.757
11.641	0.757
11.6808	0.754
11.7205	0.75
11.7603	0.73
11.8001	0.676
11.8398	0.594
11.8796	0.629
11.9193	0.707
11.9591	0.735
11.9988	0.752
12.0386	0.757
12.0783	0.759
12.1181	0.76
12.1579	0.762
12.1976	0.764
12.2374	0.764
12.2771	0.764
12.3169	0.764
12.3566	0.759
12.3964	0.75
12.4362	0.754
12.4759	0.755
12.5157	0.759
12.5554	0.76
12.5952	0.764
12.6349	0.764
12.6747	0.764
12.7145	0.764
12.7542	0.76
12.794	0.744
12.8337	0.669
12.8735	0.626
12.9132	0.682
12.953	0.73
12.9927	0.754
13.0325	0.764
13.0723	0.767
13.112	0.769
13.1518	0.77
13.1915	0.772
13.2313	0.774
13.271	0.775
13.3108	0.777
13.3506	0.779
13.3903	0.779
13.4301	0.779
13.4698	0.779
13.5096	0.779
13.5493	0.777
13.5891	0.772
13.6288	0.769
13.6686	0.764
13.7084	0.752
13.7481	0.722
13.7879	0.696
13.8276	0.594
13.8674	0.446
13.9071	0.232
13.9469	0.142
13.9867	0.109
14.0264	0.114
14.0662	0.197
14.1059	0.325
14.1457	0.461
14.1854	0.578
14.2252	0.657
14.2649	0.7
14.3047	0.724
14.3445	0.727
14.3842	0.725
14.424	0.686
14.4637	0.609
14.5035	0.548
14.5432	0.531
14.583	0.556
14.6228	0.606
14.6625	0.621
14.7023	0.606
14.742	0.564
14.7818	0.559
14.8215	0.599
14.8613	0.667
14.901	0.705
14.9408	0.719
14.9806	0.722
15.0203	0.722
15.0601	0.727
15.0998	0.732
15.1396	0.737
15.1793	0.737
15.2191	0.737
15.2589	0.737
15.2986	0.727
15.3384	0.722
15.3781	0.719
15.4179	0.712
15.4576	0.709
15.4974	0.702
15.5372	0.699
15.5769	0.682
15.6167	0.669
15.6564	0.657
15.6962	0.649
15.7359	0.637
15.7757	0.626
15.8154	0.617
15.8552	0.612
15.895	0.609
15.9347	0.604
15.9745	0.599
