Infrared Spectrum: HYPOXANTHINE, 9-BENZYL-2-CHLORO-
Formula: C12 H9 Cl N4 O
CAS: 95194-86-8
State: SOLID (0.8 mg / 650 mg KBr DISC)
Class: COBLENTZ III
Instrument: PERKIN-ELMER 21 (GRATING)
Instrument parameters: FILTER CHANGE AT ABOUT 1020 CM^-^1
Sampling: TRANSMISSION
Resolution: 2
Origin: SOUTHERN RESEARCH INSTITUTE
1/CM	TRANSMITTANCE
607.143	0.626
615.818	0.5821
624.494	0.6007
633.169	0.6677
641.845	0.6798
650.52	0.669
659.196	0.6456
667.871	0.6825
676.547	0.642
685.222	0.517
693.897	0.5373
702.573	0.676
711.248	0.5991
719.924	0.4861
728.599	0.645
737.275	0.5986
745.95	0.7062
754.625	0.5986
763.301	0.6743
771.976	0.7695
780.652	0.6627
789.327	0.8022
798.003	0.7797
806.678	0.7149
815.354	0.7576
824.029	0.7913
832.704	0.812
841.38	0.801
850.055	0.801
858.731	0.7921
867.406	0.7681
876.082	0.726
884.757	0.6855
893.433	0.6102
902.108	0.5212
910.783	0.5876
919.459	0.6721
928.134	0.6874
936.81	0.6545
945.485	0.6231
954.161	0.6853
962.836	0.7185
971.512	0.8149
980.187	0.817
988.862	0.815
997.538	0.814
1006.21	0.817
1014.89	0.8194
1023.56	0.8053
1032.24	0.7908
1040.92	0.7767
1049.59	0.765
1058.27	0.7713
1066.94	0.7498
1075.62	0.6948
1084.29	0.5713
1092.97	0.7107
1101.64	0.7253
1110.32	0.6741
1118.99	0.5432
1127.67	0.7262
1136.34	0.6861
1145.02	0.6806
1153.7	0.7493
1162.37	0.7413
1171.05	0.7169
1179.72	0.5689
1188.4	0.6844
1197.07	0.6234
1205.75	0.6322
1214.42	0.5529
1223.1	0.5666
1231.77	0.3789
1240.45	0.4541
1249.13	0.7901
1257.8	0.7967
1266.48	0.7818
1275.15	0.7512
1283.83	0.7071
1292.5	0.6079
1301.18	0.6763
1309.85	0.7732
1318.53	0.776
1327.2	0.7423
1335.88	0.7111
1344.56	0.6852
1353.23	0.5703
1361.91	0.4279
1370.58	0.3504
1379.26	0.4183
1387.93	0.3381
1396.61	0.5169
1405.28	0.7041
1413.96	0.6524
1422.63	0.577
1431.31	0.5475
1439.99	0.7197
1448.66	0.7026
1457.34	0.5461
1466.01	0.7531
1474.69	0.754
1483.36	0.7161
1492.04	0.6738
1500.71	0.594
1509.39	0.5712
1518.06	0.4658
1526.74	0.5962
1535.42	0.6255
1544.09	0.5839
1552.77	0.569
1561.44	0.5374
1570.12	0.422
1578.79	0.298
1587.47	0.3991
1596.14	0.5715
1604.82	0.609
1613.49	0.5962
1622.17	0.5661
1630.85	0.5094
1639.52	0.4641
1648.2	0.3938
1656.87	0.3314
1665.55	0.2394
1674.22	0.1255
1682.9	0.0765
1691.57	0.0786
1700.25	0.1265
1708.92	0.1869
1717.6	0.4026
1726.27	0.5607
1734.95	0.7057
1743.63	0.7817
1752.3	0.8207
1760.98	0.8467
1769.65	0.8731
1778.33	0.873
1787	0.8619
1795.68	0.863
1804.35	0.884
1813.03	0.89
1821.7	0.9039
1830.38	0.9059
1839.06	0.907
1847.73	0.9042
1856.41	0.8997
1865.08	0.901
1873.76	0.901
1882.43	0.904
1891.11	0.905
1899.78	0.905
1908.46	0.904
1917.13	0.903
1925.81	0.903
1934.49	0.8986
1943.16	0.89
1951.84	0.89
1960.51	0.888
1969.19	0.89
1977.86	0.894
1986.54	0.896
1995.21	0.896
2003.89	0.8949
2012.56	0.8899
2021.24	0.885
2029.92	0.882
2038.59	0.88
2047.27	0.88
2055.94	0.88
2064.62	0.877
2073.29	0.876
2081.97	0.872
2090.64	0.8679
2099.32	0.865
2107.99	0.866
2116.67	0.8659
2125.35	0.861
2134.02	0.861
2142.7	0.8597
2151.37	0.856
2160.05	0.8519
2168.72	0.847
2177.4	0.845
2186.07	0.8437
2194.75	0.841
2203.42	0.84
2212.1	0.84
2220.78	0.8399
2229.45	0.836
2238.13	0.834
2246.8	0.8309
2255.48	0.829
2264.15	0.826
2272.83	0.824
2281.5	0.8229
2290.18	0.8179
2298.85	0.813
2307.53	0.808
2316.2	0.806
2324.88	0.804
2333.56	0.804
2342.23	0.8043
2350.91	0.804
2359.58	0.803
2368.26	0.803
2376.93	0.7996
2385.61	0.7879
2394.28	0.7809
2402.96	0.7699
2411.63	0.766
2420.31	0.7609
2428.99	0.7567
2437.66	0.752
2446.34	0.7457
2455.01	0.7329
2463.69	0.722
2472.36	0.7159
2481.04	0.7069
2489.71	0.7009
2498.39	0.694
2507.06	0.688
2515.74	0.6839
2524.42	0.673
2533.09	0.6619
2541.77	0.6529
2550.44	0.6459
2559.12	0.638
2567.79	0.6243
2576.47	0.6066
2585.14	0.5979
2593.82	0.5867
2602.49	0.5749
2611.17	0.571
2619.85	0.571
2628.52	0.571
2637.2	0.57
2645.87	0.5649
2654.55	0.5539
2663.22	0.5439
2671.9	0.531
2680.57	0.5279
2689.25	0.5187
2697.92	0.5109
2706.6	0.5027
2715.28	0.487
2723.95	0.4769
2732.63	0.4689
2741.3	0.4619
2749.98	0.4569
2758.65	0.452
2767.33	0.4469
2776	0.4386
2784.68	0.4229
2793.35	0.4167
2802.03	0.413
2810.71	0.414
2819.38	0.4171
2828.06	0.4333
2836.73	0.4461
2845.41	0.4654
2854.08	0.4943
2862.76	0.5043
2871.43	0.5193
2880.11	0.5311
2888.78	0.5269
2897.46	0.5119
2906.13	0.503
2914.81	0.5041
2923.49	0.5091
2932.16	0.5251
2940.84	0.523
2949.51	0.517
2958.19	0.511
2966.86	0.5153
2975.54	0.5237
2984.21	0.5553
2992.89	0.5704
3001.56	0.5741
3010.24	0.5699
3018.92	0.5627
3027.59	0.5403
3036.27	0.527
3044.94	0.523
3053.62	0.528
3062.29	0.5373
3070.97	0.558
3079.64	0.575
3088.32	0.584
3096.99	0.5974
3105.67	0.6348
3114.35	0.6694
3123.02	0.6923
3131.7	0.701
3140.37	0.7031
3149.05	0.7074
3157.72	0.7221
3166.4	0.7311
3175.07	0.7393
3183.75	0.741
3192.42	0.741
3201.1	0.741
3209.78	0.741
3218.45	0.739
3227.13	0.7357
3235.8	0.7279
3244.48	0.7219
3253.15	0.715
3261.83	0.714
3270.5	0.712
3279.18	0.712
3287.85	0.712
3296.53	0.7099
3305.21	0.705
3313.88	0.6989
3322.56	0.6879
3331.23	0.6757
3339.91	0.6667
3348.58	0.6547
3357.26	0.6449
3365.93	0.6349
3374.61	0.6196
3383.28	0.6106
3391.96	0.5969
3400.63	0.5909
3409.31	0.5849
3417.99	0.5759
3426.66	0.571
3435.34	0.57
3444.01	0.5689
3452.69	0.569
3461.36	0.5713
3470.04	0.5731
3478.71	0.5751
3487.39	0.5801
3496.06	0.585
3504.74	0.5901
3513.42	0.596
3522.09	0.6011
3530.77	0.6141
3539.44	0.6251
3548.12	0.6331
3556.79	0.64
3565.47	0.6461
3574.14	0.6583
3582.82	0.6663
3591.49	0.6771
3600.17	0.689
3608.85	0.7014
3617.52	0.7103
3626.2	0.7221
3634.87	0.7323
3643.55	0.7438
3652.22	0.7531
3660.9	0.758
3669.57	0.7591
3678.25	0.759
3686.92	0.759
3695.6	0.76
3704.28	0.7613
3712.95	0.764
3721.63	0.765
3730.3	0.765
3738.98	0.764
3747.65	0.765
3756.33	0.765
3765	0.765
3773.68	0.765
3782.35	0.7691
3791.03	0.773
3799.71	0.774
3808.38	0.7739
3817.06	0.7727
3825.73	0.765
3834.41	0.7599
3843.08	0.758
3851.76	0.758
3860.43	0.7553
3869.11	0.755
3877.78	0.753
3886.46	0.753
3895.14	0.753
3903.81	0.752
3912.49	0.7517
3921.16	0.75
3929.84	0.749
3938.51	0.7479
3947.19	0.746
3955.86	0.743
3964.54	0.7389
3973.21	0.7329
3981.89	0.7269
3990.56	0.7209
3999.24	0.715
4007.92	0.7119
4016.59	0.711
