Infrared Spectrum: 4-Nitrodiphenylsulfide
Formula: C 12 H 9 N O 2 S
CAS: 952-97-6
State: gas
Origin: EPA-IR VAPOR PHASE LIBRARY
1/CM	ABSORBANCE
549.8	0.004215
559.445	0.002265
569.09	0.001855
578.734	0.001975
588.379	0.002505
598.024	0.001745
607.669	0.002035
617.313	0.001765
626.958	0.002525
636.603	0.002165
646.248	0.003085
655.893	0.005685
665.537	0.011005
675.182	0.018725
684.827	0.034585
694.472	0.045885
704.116	0.036915
713.761	0.020905
723.406	0.031285
733.051	0.046095
742.695	0.062085
752.34	0.040105
761.985	0.014825
771.63	0.007475
781.275	0.005385
790.919	0.004275
800.564	0.004405
810.209	0.005895
819.854	0.008905
829.498	0.022405
839.143	0.049055
848.788	0.113455
858.433	0.064405
868.078	0.011545
877.722	0.005065
887.367	0.003125
897.012	0.003025
906.657	0.003795
916.301	0.004085
925.946	0.002695
935.591	0.002315
945.236	0.002665
954.88	0.003045
964.525	0.002395
974.17	0.002265
983.815	0.002065
993.46	0.004375
1003.1	0.011875
1012.75	0.028325
1022.39	0.026525
1032.04	0.009855
1041.68	0.005295
1051.33	0.008295
1060.97	0.015995
1070.62	0.023945
1080.26	0.040275
1089.91	0.036065
1099.55	0.026385
1109.2	0.019015
1118.84	0.008855
1128.49	0.004235
1138.13	0.002965
1147.78	0.002155
1157.42	0.002415
1167.07	0.004925
1176.71	0.014545
1186.36	0.009885
1196	0.005465
1205.64	0.004335
1215.29	0.004655
1224.93	0.006785
1234.58	0.006285
1244.22	0.005625
1253.87	0.006505
1263.51	0.008175
1273.16	0.008145
1282.8	0.007525
1292.45	0.008885
1302.09	0.012255
1311.74	0.018215
1321.38	0.038555
1331.03	0.110955
1340.67	0.266275
1350.32	0.201345
1359.96	0.106575
1369.61	0.069365
1379.25	0.040475
1388.9	0.031365
1398.54	0.019555
1408.18	0.012885
1417.83	0.013105
1427.47	0.014525
1437.12	0.018635
1446.76	0.019675
1456.41	0.020645
1466.05	0.036885
1475.7	0.083165
1485.34	0.056425
1494.99	0.028745
1504.63	0.034815
1514.28	0.058355
1523.92	0.116655
1533.57	0.185005
1543.21	0.143175
1552.86	0.074745
1562.5	0.056435
1572.15	0.075935
1581.79	0.109155
1591.44	0.090255
1601.08	0.061505
1610.73	0.029935
1620.37	0.015085
1630.01	0.010575
1639.66	0.009555
1649.3	0.008945
1658.95	0.007925
1668.59	0.006085
1678.24	0.004275
1687.88	0.003235
1697.53	0.002665
1707.17	0.002345
1716.82	0.001995
1726.46	0.002045
1736.11	0.002185
1745.75	0.002265
1755.4	0.002185
1765.04	0.002435
1774.69	0.004225
1784.33	0.005605
1793.98	0.005025
1803.62	0.003975
1813.27	0.003085
1822.91	0.002515
1832.55	0.002195
1842.2	0.001915
1851.84	0.001905
1861.49	0.002215
1871.13	0.002875
1880.78	0.003405
1890.42	0.003365
1900.07	0.003705
1909.71	0.004575
1919.36	0.004625
1929	0.003515
1938.65	0.003155
1948.29	0.003565
1957.94	0.003315
1967.58	0.002535
1977.23	0.0011805
1986.87	0.0008583
1996.52	0.0006234
2006.16	0.0006593
2015.81	0.000692
2025.45	0.0007716
2035.1	0.0005787
2044.74	0.0004261
2054.38	0.0004839
2064.03	0.0005825
2073.67	0.0005704
2083.32	0.0006581
2092.96	0.0006108
2102.61	0.0006125
2112.25	0.0005259
2121.9	0.0005988
2131.54	0.0006251
2141.19	0.0004175
2150.83	0.0004888
2160.48	0.0004798
2170.12	0.0005713
2179.77	0.0005737
2189.41	0.0006868
2199.06	0.0008376
2208.7	0.0009998
2218.35	0.0009589
2227.99	0.0009853
2237.64	0.0007082
2247.28	0.0005807
2256.92	0.0007527
2266.57	0.0008379
2276.21	0.0008854
2285.86	0.0011567
2295.5	0.0010819
2305.15	0.0010333
2314.79	0.001365
2324.44	0.0009718
2334.08	0.0008813
2343.73	0.0009536
2353.37	0.000965
2363.02	0.0009794
2372.66	0.0010547
2382.31	0.001325
2391.95	0.0011353
2401.6	0.000949
2411.24	0.0009728
2420.89	0.001215
2430.53	0.001345
2440.18	0.001795
2449.82	0.002025
2459.47	0.001825
2469.11	0.001365
2478.75	0.0011763
2488.4	0.0010551
2498.04	0.0011144
2507.69	0.0009199
2517.33	0.0009479
2526.98	0.0011221
2536.62	0.001525
2546.27	0.001815
2555.91	0.001555
2565.56	0.001425
2575.2	0.001825
2584.85	0.002045
2594.49	0.001855
2604.14	0.001375
2613.78	0.0010183
2623.43	0.0010038
2633.07	0.000881
2642.72	0.0010169
2652.36	0.0011335
2662.01	0.001295
2671.65	0.001715
2681.29	0.001755
2690.94	0.001665
2700.58	0.001545
2710.23	0.0010787
2719.87	0.0008283
2729.52	0.0006189
2739.16	0.0007438
2748.81	0.0007584
2758.45	0.0006441
2768.1	0.0006186
2777.74	0.0005314
2787.39	0.0005443
2797.03	0.0006276
2806.68	0.0008292
2816.32	0.0010684
2825.97	0.001375
2835.61	0.001755
2845.26	0.002305
2854.9	0.002855
2864.55	0.003555
2874.19	0.003585
2883.84	0.002925
2893.48	0.002505
2903.12	0.002475
2912.77	0.002525
2922.41	0.002845
2932.06	0.002525
2941.7	0.002055
2951.35	0.001525
2960.99	0.0011801
2970.64	0.0011645
2980.28	0.001255
2989.93	0.001695
2999.57	0.002695
3009.22	0.004115
3018.86	0.005755
3028.51	0.007115
3038.15	0.005785
3047.8	0.007295
3057.44	0.014085
3067.09	0.031455
3076.73	0.033155
3086.38	0.024395
3096.02	0.011195
3105.67	0.004025
3115.31	0.002025
3124.95	0.001395
3134.6	0.001235
3144.24	0.001385
3153.89	0.001455
3163.53	0.001195
3173.18	0.0009669
3182.82	0.0010624
3192.47	0.0011353
3202.11	0.0006595
3211.76	0.0004747
3221.4	0.0003124
3231.05	0.0003493
3240.69	0.0001172
3250.34	0.0001186
3259.98	0.0002892
3269.63	0.0001605
3279.27	0.0003647
3288.92	0.00027336
3298.56	0.0001435
3308.21	0.0003076
3317.85	3.5e-05
3327.49	0
3337.14	0.0001107
3346.78	0.00024098
3356.43	0.00025209
3366.07	0.0002793
3375.72	0.00023107
3385.36	0.0001054
3395.01	0.000359
3404.65	0.0003533
3414.3	0.00021049
3423.94	0.0003078
3433.59	0.00026545
3443.23	0.0004365
3452.88	0.00024962
3462.52	0.0003435
3472.17	5.3e-05
3481.81	9.18e-05
3491.46	0.0004017
3501.1	0.000338
3510.75	0.00020844
3520.39	0.0003499
3530.04	0.00017964
3539.68	0.0001697
3549.32	0.000381
3558.97	8.99e-05
3568.61	0.00021856
3578.26	0.0003093
3587.9	3.4e-05
3597.55	0.0004405
3607.19	0.0003157
3616.84	0.0003376
3626.48	0.0004551
3636.13	0.0003818
3645.77	0.0003924
3655.42	0.0003072
3665.06	0.00024238
3674.71	0.00024681
3684.35	0.0005836
3694	0.0006136
3703.64	0.0005843
3713.29	0.0005502
3722.93	0.000603
3732.58	0.0004994
3742.22	0.000397
3751.86	0.0003173
3761.51	0.0006491
3771.15	0.0008048
3780.8	0.0006056
3790.44	0.0006261
3800.09	0.0003901
3809.73	0.0005797
3819.38	0.0005233
3829.02	0.0004126
3838.67	0.0001171
3848.31	0.00027644
3857.96	0.0003417
3867.6	0.0003901
3877.25	0.0001128
3886.89	0.00020718
3896.54	0.0003969
3906.18	0.000304
3915.83	0.0003181
3925.47	0.0003637
3935.12	0.0002861
3944.76	0.00021616
3954.41	0.0004998
3964.05	0.00024062
3973.69	0.00019753
3983.34	0.0003898
3992.98	0.0003373
