Infrared Spectrum: 3-(Beta-METHOXYETHYL)-3-PHENYL-2-BENZOFURANONE
Formula: C17 H16 O3
CAS: 95279-90-6
State: SOLUTION (7% IN CHCl3)
Class: COBLENTZ
Instrument: PERKIN-ELMER
Sampling: TRANSMISSION
Path length: 0.010 CM
Resolution: 4
Origin: ABBOTT LABORATORIES - WASHBURN
MICROMETERS	TRANSMITTANCE
2.041	0.917
2.0752	0.922
2.10939	0.924
2.14359	0.9269
2.17778	0.929
2.21198	0.931
2.24617	0.932
2.28037	0.932
2.31456	0.932
2.34876	0.931
2.38295	0.931
2.41715	0.931
2.45135	0.931
2.48554	0.929
2.51974	0.9336
2.55393	0.934
2.58813	0.9117
2.62232	0.924
2.65652	0.929
2.69071	0.936
2.72491	0.9294
2.7591	0.9331
2.7933	0.936
2.8275	0.9211
2.86169	0.915
2.89589	0.9166
2.93008	0.9197
2.96428	0.9261
2.99847	0.931
3.03267	0.932
3.06686	0.934
3.10106	0.936
3.13526	0.936
3.16945	0.936
3.20365	0.929
3.23784	0.9111
3.27204	0.8623
3.30623	0.8147
3.34043	0.789
3.37462	0.7943
3.40882	0.7818
3.44301	0.724
3.47721	0.7259
3.51141	0.7375
3.5456	0.7763
3.5798	0.8116
3.61399	0.8914
3.64819	0.903
3.68238	0.9175
3.71658	0.929
3.75077	0.936
3.78497	0.936
3.81916	0.943
3.85336	0.945
3.88756	0.943
3.92175	0.9398
3.95595	0.939
3.99014	0.941
4.02434	0.939
4.05853	0.9422
4.09273	0.9385
4.12692	0.94
4.16112	0.9455
4.19531	0.9567
4.22951	0.959
4.26371	0.951
4.2979	0.952
4.3321	0.946
4.36629	0.938
4.40049	0.936
4.43468	0.939
4.46888	0.941
4.50307	0.9408
4.53727	0.943
4.57147	0.946
4.60566	0.9421
4.63986	0.9402
4.67405	0.938
4.70825	0.936
4.74244	0.934
4.77664	0.9316
4.81083	0.929
4.84503	0.9347
4.87922	0.934
4.91342	0.932
4.94762	0.934
4.98181	0.934
5.01601	0.931
5.0502	0.9303
5.0844	0.927
5.11859	0.913
5.15279	0.9036
5.18698	0.9143
5.22118	0.9163
5.25537	0.9093
5.28957	0.9085
5.32377	0.9085
5.35796	0.9027
5.39216	0.8887
5.42635	0.8523
5.46055	0.728
5.49474	0.5183
5.52894	0.1861
5.56313	0.0927
5.59733	0.3093
5.63152	0.6527
5.66572	0.7756
5.69992	0.8236
5.73411	0.8596
5.76831	0.8834
5.8025	0.8922
5.8367	0.8953
5.87089	0.8957
5.90509	0.8956
5.93928	0.89
5.97348	0.8922
6.00767	0.8968
6.04187	0.892
6.07607	0.895
6.11026	0.8843
6.14446	0.7612
6.17865	0.5971
6.21285	0.7617
6.24704	0.6543
6.28124	0.7591
6.31543	0.8296
6.34963	0.8688
6.38383	0.8916
6.41802	0.8953
6.45222	0.9011
6.48641	0.907
6.52061	0.912
6.5548	0.9147
6.589	0.9133
6.62319	0.8957
6.65739	0.803
6.69158	0.6713
6.72578	0.6666
6.75998	0.5266
6.79417	0.4331
6.82837	0.4989
6.86256	0.3066
6.89676	0.583
6.93095	0.6498
6.96515	0.786
6.99934	0.8032
7.03354	0.8248
7.06773	0.8562
7.10193	0.878
7.13613	0.8716
7.17032	0.8565
7.20452	0.7818
7.23871	0.8054
7.27291	0.8553
7.3071	0.8832
7.3413	0.893
7.37549	0.895
7.40969	0.891
7.44388	0.8901
7.47808	0.8787
7.51228	0.8596
7.54647	0.8071
7.58067	0.7912
7.61486	0.8013
7.64906	0.8253
7.68325	0.8268
7.71745	0.7482
7.75164	0.649
7.78584	0.6993
7.82003	0.7777
7.85423	0.798
7.88843	0.7872
7.92262	0.774
7.95682	0.7681
7.99101	0.7519
8.02521	0.7376
8.0594	0.7023
8.0936	0.6113
8.12779	0.5645
8.16199	0.5537
8.19619	0.556
8.23038	0.558
8.26458	0.558
8.29877	0.5603
8.33297	0.5906
8.36716	0.6534
8.40136	0.6466
8.43555	0.6668
8.46975	0.7089
8.50394	0.725
8.53814	0.7286
8.57234	0.7469
8.60653	0.7582
8.64073	0.7172
8.67492	0.697
8.70912	0.6965
8.74331	0.6299
8.77751	0.4796
8.8117	0.2413
8.8459	0.2159
8.88009	0.3622
8.91429	0.384
8.94849	0.3404
8.98268	0.3576
9.01688	0.4029
9.05107	0.4646
9.08527	0.5449
9.11946	0.58
9.15366	0.549
9.18785	0.5622
9.22205	0.577
9.25624	0.579
9.29044	0.6036
9.32464	0.62
9.35883	0.6005
9.39303	0.5539
9.42722	0.4583
9.46142	0.3426
9.49561	0.2589
9.52981	0.2045
9.564	0.1956
9.5982	0.2539
9.6324	0.3277
9.66659	0.3963
9.70079	0.5092
9.73498	0.5973
9.76918	0.6037
9.80337	0.5475
9.83757	0.522
9.87176	0.6052
9.90596	0.6243
9.94015	0.6926
9.97435	0.7052
10.0085	0.7397
10.0427	0.7572
10.0769	0.769
10.1111	0.7597
10.1453	0.7462
10.1795	0.7621
10.2137	0.7959
10.2479	0.8093
10.2821	0.8083
10.3163	0.7906
10.3505	0.776
10.3847	0.7882
10.4189	0.81
10.4531	0.8246
10.4873	0.8338
10.5215	0.8323
10.5557	0.828
10.5899	0.8274
10.6241	0.824
10.6583	0.819
10.6925	0.8124
10.7267	0.8094
10.7608	0.816
10.795	0.8148
10.8292	0.7798
10.8634	0.6933
10.8976	0.5806
10.9318	0.5377
10.966	0.5501
11.0002	0.6077
11.0344	0.6452
11.0686	0.6668
11.1028	0.6625
11.137	0.6397
11.1712	0.6357
11.2054	0.6589
11.2396	0.7044
11.2738	0.7488
11.308	0.7883
11.3422	0.8133
11.3764	0.824
11.4106	0.8221
11.4448	0.7919
11.479	0.7617
11.5131	0.7608
11.5473	0.7938
11.5815	0.8172
11.6157	0.831
11.6499	0.8373
11.6841	0.8516
11.7183	0.8721
11.7525	0.8875
11.7867	0.898
11.8209	0.9
11.8551	0.902
11.8893	0.898
11.9235	0.895
11.9577	0.895
11.9919	0.896
12.0261	0.8986
12.0603	0.898
12.0945	0.9
12.1287	0.9024
12.1629	0.908
12.1971	0.91
12.2313	0.914
12.2654	0.9146
12.2996	0.917
12.3338	0.917
12.368	0.9156
12.4022	0.915
12.4364	0.914
12.4706	0.914
12.5048	0.914
12.539	0.9133
12.5732	0.9093
12.6074	0.9062
12.6416	0.9
12.6758	0.893
12.71	0.89
12.7442	0.881
12.7784	0.878
12.8126	0.8702
12.8468	0.8662
12.881	0.86
12.9152	0.8513
12.9494	0.847
12.9836	0.8406
13.0177	0.835
13.0519	0.8287
13.0861	0.8223
13.1203	0.8166
13.1545	0.8096
13.1887	0.804
13.2229	0.7977
13.2571	0.792
13.2913	0.7856
13.3255	0.7792
13.3597	0.773
13.3939	0.7671
13.4281	0.759
13.4623	0.754
13.4965	0.7512
13.5307	0.747
13.5649	0.745
13.5991	0.7414
13.6333	0.738
13.6675	0.735
13.7017	0.7321
13.7359	0.73
13.77	0.726
13.8042	0.723
13.8384	0.7202
13.8726	0.718
13.9068	0.7196
13.941	0.7187
13.9752	0.711
14.0094	0.707
14.0436	0.7184
14.0778	0.7293
14.112	0.7423
14.1462	0.7507
14.1804	0.752
14.2146	0.7426
14.2488	0.7271
14.283	0.6989
14.3172	0.6517
14.3514	0.5847
14.3856	0.5349
14.4198	0.4936
14.454	0.5243
14.4882	0.5775
14.5223	0.6442
14.5565	0.7104
14.5907	0.7525
14.6249	0.7902
14.6591	0.8138
14.6933	0.838
14.7275	0.8488
14.7617	0.865
14.7959	0.869
14.8301	0.8713
14.8643	0.8702
14.8985	0.8575
14.9327	0.8467
14.9669	0.8371
15.0011	0.8287
15.0353	0.8146
15.0695	0.8038
15.1037	0.802
15.1379	0.8043
15.1721	0.8132
15.2063	0.814
15.2405	0.814
15.2746	0.8073
15.3088	0.7842
