Infrared Spectrum: 2,2'-DITHIO BIS 4-(n-HEPTYLSULFONYLMETHYL) THIAZOLE
Formula: C22 H36 N2 O4 S6
CAS: 95288-82-7
State: SOLID (KBr PRESSING)
Melting point: 169-171 C
Class: COBLENTZ
Instrument: Not specified, most likely a prism, grating, or hybrid spectrometer.
Sampling: TRANSMISSION
Resolution: 4
Origin: EASTMAN KODAK COMPANY, RESEARCH LABORATORIES, ROCHESTER, N.Y.
MICROMETERS	TRANSMITTANCE
2.013	0.588
2.05298	0.589
2.09296	0.596
2.13295	0.598
2.17293	0.599
2.21291	0.599
2.25289	0.601
2.29287	0.609
2.33286	0.611
2.37284	0.617
2.41282	0.621
2.4528	0.627
2.49278	0.63
2.53276	0.63
2.57275	0.637
2.61273	0.649
2.65271	0.66
2.69269	0.663
2.73267	0.667
2.77266	0.654
2.81264	0.622
2.85262	0.609
2.8926	0.589
2.93258	0.581
2.97257	0.612
3.01255	0.64
3.05253	0.655
3.09251	0.662
3.13249	0.672
3.17247	0.655
3.21246	0.634
3.25244	0.668
3.29242	0.67
3.3324	0.57
3.37238	0.322
3.41237	0.301
3.45235	0.502
3.49233	0.35
3.53231	0.64
3.57229	0.678
3.61228	0.705
3.65226	0.713
3.69224	0.718
3.73222	0.724
3.7722	0.731
3.81219	0.739
3.85217	0.744
3.89215	0.749
3.93213	0.759
3.97211	0.761
4.01209	0.761
4.05208	0.759
4.09206	0.761
4.13204	0.762
4.17202	0.772
4.212	0.777
4.25199	0.779
4.29197	0.775
4.33195	0.78
4.37193	0.789
4.41191	0.797
4.4519	0.799
4.49188	0.8
4.53186	0.808
4.57184	0.81
4.61182	0.813
4.65181	0.812
4.69179	0.815
4.73177	0.818
4.77175	0.822
4.81173	0.822
4.85171	0.822
4.8917	0.825
4.93168	0.827
4.97166	0.828
5.01164	0.835
5.05162	0.836
5.09161	0.841
5.13159	0.843
5.17157	0.85
5.21155	0.851
5.25153	0.85
5.29152	0.851
5.3315	0.861
5.37148	0.863
5.41146	0.866
5.45144	0.859
5.49142	0.863
5.53141	0.863
5.57139	0.864
5.61137	0.874
5.65135	0.874
5.69133	0.873
5.73132	0.871
5.7713	0.863
5.81128	0.861
5.85126	0.859
5.89124	0.859
5.93123	0.871
5.97121	0.869
6.01119	0.873
6.05117	0.864
6.09115	0.851
6.13114	0.855
6.17112	0.851
6.2111	0.853
6.25108	0.863
6.29106	0.866
6.33104	0.878
6.37103	0.878
6.41101	0.878
6.45099	0.879
6.49097	0.883
6.53095	0.881
6.57094	0.851
6.61092	0.759
6.6509	0.782
6.69088	0.822
6.73086	0.831
6.77085	0.831
6.81083	0.729
6.85081	0.632
6.89079	0.68
6.93077	0.769
6.97076	0.803
7.01074	0.812
7.05072	0.729
7.0907	0.67
7.13068	0.49
7.17066	0.49
7.21065	0.731
7.25063	0.808
7.29061	0.795
7.33059	0.822
7.37057	0.84
7.41056	0.853
7.45054	0.858
7.49052	0.835
7.5305	0.8
7.57048	0.635
7.61047	0.341
7.65045	0.322
7.69043	0.28
7.73041	0.373
7.77039	0.207
7.81037	0.271
7.85036	0.459
7.89034	0.252
7.93032	0.578
7.9703	0.682
8.01028	0.708
8.05027	0.756
8.09025	0.815
8.13023	0.779
8.17021	0.833
8.21019	0.843
8.25018	0.84
8.29016	0.873
8.33014	0.889
8.37012	0.883
8.4101	0.889
8.45009	0.879
8.49007	0.881
8.53005	0.883
8.57003	0.873
8.61001	0.871
8.64999	0.83
8.68998	0.8
8.72996	0.719
8.76994	0.5
8.80992	0.103
8.8499	0.179
8.88989	0.38
8.92987	0.489
8.96985	0.362
9.00983	0.487
9.04981	0.691
9.0898	0.802
9.12978	0.85
9.16976	0.859
9.20974	0.863
9.24972	0.866
9.28971	0.873
9.32969	0.881
9.36967	0.884
9.40965	0.881
9.44963	0.84
9.48961	0.756
9.5296	0.606
9.56958	0.397
9.60956	0.255
9.64954	0.352
9.68952	0.571
9.72951	0.711
9.76949	0.769
9.80947	0.799
9.84945	0.84
9.88943	0.879
9.92942	0.896
9.9694	0.906
10.0094	0.912
10.0494	0.914
10.0893	0.907
10.1293	0.909
10.1693	0.922
10.2093	0.929
10.2493	0.93
10.2893	0.932
10.3292	0.932
10.3692	0.934
10.4092	0.932
10.4492	0.927
10.4892	0.927
10.5291	0.93
10.5691	0.922
10.6091	0.861
10.6491	0.799
10.6891	0.892
10.7291	0.94
10.769	0.95
10.809	0.955
10.849	0.962
10.889	0.971
10.929	0.975
10.9689	0.973
11.0089	0.965
11.0489	0.957
11.0889	0.967
11.1289	0.973
11.1689	0.97
11.2088	0.942
11.2488	0.864
11.2888	0.871
11.3288	0.932
11.3688	0.962
11.4087	0.98
11.4487	0.985
11.4887	0.988
11.5287	0.985
11.5687	0.983
11.6087	0.981
11.6486	0.97
11.6886	0.93
11.7286	0.833
11.7686	0.822
11.8086	0.897
11.8485	0.943
11.8885	0.955
11.9285	0.962
11.9685	0.97
12.0085	0.97
12.0485	0.973
12.0884	0.973
12.1284	0.973
12.1684	0.971
12.2084	0.97
12.2484	0.97
12.2883	0.963
12.3283	0.963
12.3683	0.962
12.4083	0.96
12.4483	0.953
12.4883	0.95
12.5282	0.942
12.5682	0.93
12.6082	0.906
12.6482	0.871
12.6882	0.822
12.7281	0.79
12.7681	0.81
12.8081	0.846
12.8481	0.863
12.8881	0.871
12.9281	0.859
12.968	0.84
13.008	0.808
13.048	0.741
13.088	0.672
13.128	0.601
13.1679	0.561
13.2079	0.578
13.2479	0.662
13.2879	0.742
13.3279	0.8
13.3679	0.843
13.4078	0.871
13.4478	0.889
13.4878	0.899
13.5278	0.901
13.5678	0.894
13.6077	0.868
13.6477	0.859
13.6877	0.855
13.7277	0.831
13.7677	0.775
13.8077	0.744
13.8476	0.78
13.8876	0.841
13.9276	0.889
13.9676	0.911
14.0076	0.927
14.0476	0.939
14.0875	0.947
14.1275	0.947
14.1675	0.94
14.2075	0.924
14.2475	0.876
14.2874	0.817
14.3274	0.774
14.3674	0.79
14.4074	0.836
14.4474	0.881
14.4874	0.914
14.5273	0.922
14.5673	0.929
14.6073	0.943
14.6473	0.97
14.6873	0.98
14.7272	0.978
14.7672	0.97
14.8072	0.95
14.8472	0.911
14.8872	0.863
14.9272	0.812
14.9671	0.754
15.0071	0.678
15.0471	0.66
15.0871	0.729
15.1271	0.805
15.167	0.85
15.207	0.869
15.247	0.886
15.287	0.894
15.327	0.897
15.367	0.894
15.4069	0.887
15.4469	0.883
15.4869	0.879
15.5269	0.883
15.5669	0.889
15.6068	0.901
15.6468	0.906
15.6868	0.907
15.7268	0.904
15.7668	0.897
15.8068	0.892
15.8467	0.881
15.8867	0.881
15.9267	0.879
15.9667	0.873
