Infrared Spectrum: Estra-1,3,5(10)-triene-16Beta-ylacetic acid lactone, 17Beta-hydroxy-3-methoxy-
Formula: C21 H26 O3
CAS: 95282-75-0
State: SOLUTION 7% (CHCl3 FOR 2.5-15 microns)
Class: COBLENTZ
Instrument: PERKIN-ELMER 21 (GRATING)
Instrument parameters: FILTER AT ABOUT 10 MICRONS
Path length: 0.01 CM
Resolution: 2
Origin: ABBOTT LABORATORIES
1/CM	TRANSMITTANCE
668	0.956
677	0.9581
686	0.9279
695	0.9184
704	0.9141
713	0.9111
722	0.9093
731	0.9101
740	0.9113
749	0.9121
758	0.912
767	0.9064
776	0.9001
785	0.8944
794	0.8958
803	0.8626
812	0.7521
821	0.7358
830	0.8272
839	0.8005
848	0.7375
857	0.7097
866	0.7785
875	0.7424
884	0.7249
893	0.7563
902	0.7208
911	0.8477
920	0.8512
929	0.8701
938	0.8748
947	0.8658
956	0.8458
965	0.7956
974	0.8363
983	0.781
992	0.7862
1001	0.6385
1010	0.6644
1019	0.3377
1028	0.4437
1037	0.2653
1046	0.4542
1055	0.4801
1064	0.4639
1073	0.76
1082	0.7936
1091	0.759
1100	0.6933
1109	0.7203
1118	0.6344
1127	0.6148
1136	0.5961
1145	0.5728
1154	0.4635
1163	0.3301
1172	0.1689
1181	0.2674
1190	0.5075
1199	0.5965
1208	0.5278
1217	0.4731
1226	0.4232
1235	0.3649
1244	0.3958
1253	0.3608
1262	0.4835
1271	0.6659
1280	0.5449
1289	0.5534
1298	0.6121
1307	0.539
1316	0.5887
1325	0.675
1334	0.6692
1343	0.6805
1352	0.7308
1361	0.6774
1370	0.7429
1379	0.7814
1388	0.6884
1397	0.7714
1406	0.8002
1415	0.7473
1424	0.6542
1433	0.6793
1442	0.6755
1451	0.6036
1460	0.5415
1469	0.5329
1478	0.6981
1487	0.7151
1496	0.4141
1505	0.2439
1514	0.6149
1523	0.8052
1532	0.8399
1541	0.8496
1550	0.8479
1559	0.8402
1568	0.8169
1577	0.7485
1586	0.7099
1595	0.7789
1604	0.6918
1613	0.4995
1622	0.538
1631	0.7548
1640	0.8095
1649	0.83
1658	0.8316
1667	0.8289
1676	0.8254
1685	0.8183
1694	0.8032
1703	0.7663
1712	0.7436
1721	0.7393
1730	0.7288
1739	0.6986
1748	0.55
1757	0.378
1766	0.1053
1775	0.0624
1784	0.2413
1793	0.4356
1802	0.628
1811	0.7557
1820	0.8194
1829	0.8451
1838	0.8582
1847	0.8635
1856	0.8631
1865	0.8612
1874	0.8609
1883	0.8612
1892	0.8626
1901	0.8655
1910	0.8737
1919	0.8806
1928	0.8814
1937	0.882
1946	0.8823
1955	0.8822
1964	0.882
1973	0.8819
1982	0.8816
1991	0.8812
2000	0.8809
2009	0.8806
2018	0.8804
2027	0.8803
2036	0.8801
2045	0.8796
2054	0.879
2063	0.8784
2072	0.8802
2081	0.8828
2090	0.8849
2099	0.8854
2108	0.886
2117	0.8863
2126	0.8863
2135	0.8862
2144	0.8861
2153	0.8862
2162	0.8862
2171	0.8862
2180	0.8864
2189	0.8867
2198	0.887
2207	0.8873
2216	0.8871
2225	0.8863
2234	0.8855
2243	0.8847
2252	0.884
2261	0.883
2270	0.8818
2279	0.8807
2288	0.8796
2297	0.8784
2306	0.8769
2315	0.8755
2324	0.8742
2333	0.8728
2342	0.8727
2351	0.8732
2360	0.8737
2369	0.8741
2378	0.8746
2387	0.8748
2396	0.8735
2405	0.8703
2414	0.8678
2423	0.8669
2432	0.8668
2441	0.8677
2450	0.8686
2459	0.8695
2468	0.8703
2477	0.87
2486	0.8696
2495	0.8693
2504	0.8689
2513	0.8685
2522	0.8681
2531	0.868
2540	0.8679
2549	0.8678
2558	0.8677
2567	0.8676
2576	0.8676
2585	0.8678
2594	0.8681
2603	0.8683
2612	0.8685
2621	0.8688
2630	0.8689
2639	0.869
2648	0.8692
2657	0.8694
2666	0.8695
2675	0.8688
2684	0.8675
2693	0.8663
2702	0.865
2711	0.8635
2720	0.8617
2729	0.86
2738	0.8584
2747	0.8567
2756	0.855
2765	0.8524
2774	0.8492
2783	0.846
2792	0.8394
2801	0.8261
2810	0.8055
2819	0.7473
2828	0.6686
2837	0.5914
2846	0.5792
2855	0.574
2864	0.5699
2873	0.5661
2882	0.5617
2891	0.5566
2900	0.5334
2909	0.4925
2918	0.4518
2927	0.4115
2936	0.3762
2945	0.3739
2954	0.4021
2963	0.4408
2972	0.4793
2981	0.5175
2990	0.5548
2999	0.5768
3008	0.5936
3017	0.5981
3026	0.6011
3035	0.7626
3044	0.789
3053	0.7995
3062	0.8097
3071	0.8199
3080	0.8287
3089	0.8372
3098	0.8454
3107	0.8504
3116	0.8553
3125	0.8603
3134	0.8651
3143	0.8693
3152	0.8719
3161	0.8744
3170	0.8768
3179	0.8793
3188	0.8817
3197	0.8828
3206	0.8838
3215	0.8847
3224	0.8857
3233	0.8866
3242	0.8876
3251	0.8876
3260	0.8875
3269	0.8875
3278	0.8874
3287	0.8873
3296	0.8873
3305	0.8872
3314	0.8871
3323	0.8869
3332	0.8868
3341	0.8867
3350	0.8865
3359	0.8864
3368	0.8862
3377	0.8861
3386	0.8859
3395	0.8856
3404	0.8849
3413	0.8842
3422	0.8836
3431	0.883
3440	0.8824
3449	0.8817
3458	0.881
3467	0.8802
3476	0.8794
3485	0.8786
3494	0.8779
3503	0.878
3512	0.8787
3521	0.8795
3530	0.8808
3539	0.883
3548	0.8851
3557	0.8874
3566	0.8901
3575	0.8921
3584	0.8931
3593	0.8938
3602	0.8932
3611	0.8926
3620	0.8921
3629	0.8915
3638	0.8908
3647	0.8899
3656	0.8889
3665	0.888
3674	0.8881
3683	0.8882
3692	0.8883
3701	0.8889
3710	0.8902
3719	0.8914
3728	0.8926
3737	0.8931
3746	0.8931
3755	0.8931
3764	0.8931
3773	0.8931
3782	0.8931
3791	0.8931
3800	0.8928
3809	0.8924
3818	0.8919
3827	0.8915
3836	0.8911
3845	0.8906
3854	0.8902
3863	0.89
3872	0.8899
3881	0.8898
3890	0.8897
3899	0.8897
3908	0.8896
3917	0.8895
3926	0.8894
3935	0.8893
3944	0.8891
3953	0.889
3962	0.8889
3971	0.8888
3980	0.8887
3989	0.8885
3998	0.8885
