Infrared Spectrum: 5,8,11,14-EICOSATETRAENOIC ACID, ETHYL ESTER
Formula: C22 H36 O2
CAS: 95285-77-1
State: LIQUID
Class: COBLENTZ
Instrument: PERKIN-ELMER
Sampling: TRANSMISSION
Path length: 0.001 CM
Resolution: 4
MICROMETERS	TRANSMITTANCE
2.012	0.949
2.04885	0.952
2.08569	0.955
2.12254	0.955
2.15938	0.955
2.19623	0.957
2.23307	0.958
2.26992	0.957
2.30676	0.961
2.34361	0.957
2.38045	0.943
2.4173	0.941
2.45415	0.94
2.49099	0.943
2.52784	0.952
2.56468	0.952
2.60153	0.953
2.63837	0.963
2.67522	0.957
2.71206	0.961
2.74891	0.964
2.78575	0.966
2.8226	0.96
2.85945	0.963
2.89629	0.961
2.93314	0.955
2.96998	0.944
3.00683	0.95
3.04367	0.955
3.08052	0.953
3.11736	0.95
3.15421	0.95
3.19105	0.947
3.2279	0.937
3.26475	0.937
3.30159	0.934
3.33844	0.898
3.37528	0.575
3.41213	0.509
3.44897	0.315
3.48582	0.28
3.52266	0.461
3.55951	0.446
3.59635	0.7
3.6332	0.848
3.67005	0.911
3.70689	0.932
3.74374	0.935
3.78058	0.938
3.81743	0.94
3.85427	0.947
3.89112	0.949
3.92796	0.957
3.96481	0.957
4.00165	0.955
4.0385	0.955
4.07535	0.96
4.11219	0.961
4.14904	0.961
4.18588	0.955
4.22273	0.957
4.25957	0.966
4.29642	0.969
4.33326	0.96
4.37011	0.961
4.40695	0.952
4.4438	0.96
4.48065	0.957
4.51749	0.955
4.55434	0.961
4.59118	0.952
4.62803	0.957
4.66487	0.958
4.70172	0.96
4.73856	0.953
4.77541	0.961
4.81225	0.958
4.8491	0.96
4.88595	0.953
4.92279	0.953
4.95964	0.953
4.99648	0.949
5.03333	0.955
5.07017	0.952
5.10702	0.952
5.14386	0.953
5.18071	0.947
5.21755	0.95
5.2544	0.95
5.29125	0.943
5.32809	0.943
5.36494	0.943
5.40178	0.941
5.43863	0.943
5.47547	0.944
5.51232	0.937
5.54916	0.93
5.58601	0.924
5.62285	0.898
5.6597	0.871
5.69655	0.82
5.73339	0.608
5.77024	0.174
5.80708	0.26
5.84393	0.638
5.88077	0.776
5.91762	0.811
5.95446	0.845
5.99131	0.863
6.02815	0.866
6.065	0.849
6.10185	0.849
6.13869	0.894
6.17554	0.921
6.21238	0.926
6.24923	0.929
6.28607	0.935
6.32292	0.937
6.35976	0.935
6.39661	0.935
6.43345	0.944
6.4703	0.94
6.50715	0.941
6.54399	0.941
6.58084	0.934
6.61768	0.937
6.65453	0.923
6.69137	0.917
6.72822	0.909
6.76506	0.846
6.80191	0.794
6.83875	0.622
6.8756	0.588
6.91245	0.581
6.94929	0.584
6.98614	0.619
7.02298	0.662
7.05983	0.676
7.09667	0.717
7.13352	0.763
7.17036	0.722
7.20721	0.661
7.24405	0.687
7.2809	0.605
7.31775	0.556
7.35459	0.682
7.39144	0.763
7.42828	0.731
7.46513	0.725
7.50197	0.757
7.53882	0.739
7.57566	0.723
7.61251	0.694
7.64935	0.67
7.6862	0.667
7.72305	0.671
7.75989	0.682
7.79674	0.7
7.83358	0.694
7.87043	0.661
7.90727	0.634
7.94412	0.607
7.98096	0.599
8.01781	0.567
8.05465	0.532
8.0915	0.506
8.12835	0.523
8.16519	0.539
8.20204	0.55
8.23888	0.532
8.27573	0.518
8.31257	0.507
8.34942	0.492
8.38626	0.469
8.42311	0.446
8.45995	0.426
8.4968	0.404
8.53365	0.392
8.57049	0.407
8.60734	0.427
8.64418	0.429
8.68103	0.418
8.71787	0.414
8.75472	0.457
8.79156	0.547
8.82841	0.644
8.86525	0.717
8.9021	0.745
8.93895	0.759
8.97579	0.745
9.01264	0.734
9.04948	0.726
9.08633	0.693
9.12317	0.654
9.16002	0.65
9.19686	0.69
9.23371	0.714
9.27055	0.723
9.3074	0.722
9.34425	0.717
9.38109	0.707
9.41794	0.699
9.45478	0.69
9.49163	0.68
9.52847	0.662
9.56532	0.651
9.60216	0.625
9.63901	0.592
9.67585	0.572
9.7127	0.569
9.74955	0.587
9.78639	0.639
9.82324	0.69
9.86008	0.726
9.89693	0.768
9.93377	0.797
9.97062	0.823
10.0075	0.837
10.0443	0.849
10.0812	0.843
10.118	0.838
10.1548	0.831
10.1917	0.796
10.2285	0.748
10.2654	0.708
10.3022	0.67
10.3391	0.644
10.3759	0.647
10.4128	0.697
10.4496	0.745
10.4865	0.774
10.5233	0.799
10.5601	0.802
10.597	0.803
10.6338	0.8
10.6707	0.805
10.7075	0.797
10.7444	0.788
10.7812	0.782
10.8181	0.777
10.8549	0.769
10.8918	0.771
10.9286	0.768
10.9654	0.759
11.0023	0.763
11.0391	0.779
11.076	0.792
11.1128	0.803
11.1497	0.809
11.1865	0.822
11.2234	0.831
11.2602	0.835
11.2971	0.846
11.3339	0.849
11.3707	0.849
11.4076	0.851
11.4444	0.842
11.4813	0.837
11.5181	0.831
11.555	0.823
11.5918	0.817
11.6287	0.822
11.6655	0.817
11.7024	0.817
11.7392	0.823
11.776	0.837
11.8129	0.842
11.8497	0.848
11.8866	0.852
11.9234	0.857
11.9603	0.869
11.9971	0.875
12.034	0.884
12.0708	0.891
12.1077	0.891
12.1445	0.891
12.1813	0.895
12.2182	0.892
12.255	0.888
12.2919	0.88
12.3287	0.881
12.3656	0.877
12.4024	0.868
12.4393	0.866
12.4761	0.868
12.513	0.868
12.5498	0.861
12.5866	0.854
12.6235	0.851
12.6603	0.846
12.6972	0.843
12.734	0.835
12.7709	0.832
12.8077	0.831
12.8446	0.837
12.8814	0.823
12.9183	0.817
12.9551	0.814
12.9919	0.809
13.0288	0.808
13.0656	0.805
13.1025	0.796
13.1393	0.789
13.1762	0.782
13.213	0.771
13.2499	0.765
13.2867	0.753
13.3236	0.739
13.3604	0.72
13.3972	0.708
13.4341	0.702
13.4709	0.679
13.5078	0.659
13.5446	0.642
13.5815	0.627
13.6183	0.605
13.6552	0.598
13.692	0.596
13.7289	0.581
13.7657	0.57
13.8025	0.565
13.8394	0.565
13.8762	0.558
13.9131	0.556
13.9499	0.55
13.9868	0.549
14.0236	0.552
14.0605	0.556
14.0973	0.559
14.1342	0.562
14.171	0.57
14.2078	0.57
14.2447	0.572
14.2815	0.579
14.3184	0.581
14.3552	0.588
14.3921	0.592
14.4289	0.601
14.4658	0.605
14.5026	0.607
14.5395	0.607
14.5763	0.618
14.6131	0.628
14.65	0.63
14.6868	0.642
14.7237	0.644
14.7605	0.65
14.7974	0.654
14.8342	0.661
14.8711	0.673
14.9079	0.68
14.9448	0.682
14.9816	0.693
15.0184	0.702
15.0553	0.702
15.0921	0.7
15.129	0.702
15.1658	0.708
15.2027	0.71
15.2395	0.713
15.2764	0.72
15.3132	0.713
15.3501	0.711
15.3869	0.716
15.4237	0.714
15.4606	0.711
15.4974	0.716
