Infrared Spectrum: P-PHENYLAZO CARBANILIC ACID, n-DECYL ESTER
Formula: C23 H31 N3 O2
CAS: 95293-42-8
State: SOLID (1.8 mg / 100 mg KBr)
Melting point: 113-114 C
Class: COBLENTZ
Instrument: Not specified, most likely a grating spectrometer.
Sampling: TRANSMISSION
Resolution: 4
Origin: CITRUS EXPERIMENT STATION, UNIVERSITY OF FLORIDA (G. EDWARDS)
MICROMETERS	TRANSMITTANCE
2.04	0.604
2.07319	0.61
2.10638	0.61
2.13957	0.61
2.17276	0.612
2.20596	0.613
2.23915	0.617
2.27234	0.626
2.30553	0.629
2.33872	0.63
2.37191	0.629
2.4051	0.632
2.43829	0.634
2.47149	0.637
2.50468	0.637
2.53787	0.637
2.57106	0.64
2.60425	0.64
2.63744	0.648
2.67063	0.649
2.70382	0.642
2.73702	0.64
2.77021	0.641
2.8034	0.654
2.83659	0.656
2.86978	0.652
2.90297	0.648
2.93616	0.606
2.96935	0.436
3.00255	0.521
3.03574	0.648
3.06893	0.666
3.10212	0.667
3.13531	0.674
3.1685	0.673
3.20169	0.667
3.23488	0.658
3.26808	0.638
3.30127	0.66
3.33446	0.642
3.36765	0.44
3.40084	0.346
3.43403	0.5
3.46722	0.444
3.50041	0.414
3.53361	0.648
3.5668	0.652
3.59999	0.652
3.63318	0.654
3.66637	0.665
3.69956	0.666
3.73275	0.67
3.76594	0.673
3.79914	0.679
3.83233	0.678
3.86552	0.677
3.89871	0.677
3.9319	0.678
3.96509	0.679
3.99828	0.678
4.03147	0.681
4.06466	0.685
4.09786	0.685
4.13105	0.686
4.16424	0.687
4.19743	0.683
4.23062	0.686
4.26381	0.687
4.297	0.69
4.33019	0.691
4.36339	0.689
4.39658	0.689
4.42977	0.694
4.46296	0.697
4.49615	0.698
4.52934	0.699
4.56253	0.699
4.59572	0.698
4.62892	0.699
4.66211	0.703
4.6953	0.703
4.72849	0.703
4.76168	0.706
4.79487	0.705
4.82806	0.705
4.86125	0.705
4.89445	0.703
4.92764	0.703
4.96083	0.709
4.99402	0.71
5.02721	0.707
5.0604	0.703
5.09359	0.703
5.12678	0.703
5.15998	0.709
5.19317	0.697
5.22636	0.703
5.25955	0.699
5.29274	0.711
5.32593	0.714
5.35912	0.715
5.39231	0.711
5.42551	0.715
5.4587	0.707
5.49189	0.705
5.52508	0.699
5.55827	0.697
5.59146	0.703
5.62465	0.701
5.65784	0.697
5.69104	0.687
5.72423	0.654
5.75742	0.6
5.79061	0.47
5.8238	0.211
5.85699	0.339
5.89018	0.56
5.92337	0.641
5.95657	0.664
5.98976	0.673
6.02295	0.691
6.05614	0.698
6.08933	0.705
6.12252	0.702
6.15571	0.652
6.1889	0.52
6.22209	0.288
6.25529	0.463
6.28848	0.604
6.32167	0.662
6.35486	0.652
6.38805	0.583
6.42124	0.43
6.45443	0.18
6.48762	0.103
6.52082	0.175
6.55401	0.379
6.5872	0.471
6.62039	0.539
6.65358	0.56
6.68677	0.593
6.71996	0.598
6.75315	0.531
6.78635	0.447
6.81954	0.452
6.85273	0.601
6.88592	0.598
6.91911	0.47
6.9523	0.504
6.98549	0.622
7.01868	0.604
7.05188	0.399
7.08507	0.471
7.11826	0.609
7.15145	0.636
7.18464	0.62
7.21783	0.618
7.25102	0.572
7.28421	0.592
7.31741	0.629
7.3506	0.65
7.38379	0.662
7.41698	0.657
7.45017	0.641
7.48336	0.622
7.51655	0.563
7.54974	0.488
7.58294	0.423
7.61613	0.351
7.64932	0.399
7.68251	0.409
7.7157	0.563
7.74889	0.62
7.78208	0.622
7.81527	0.579
7.84847	0.565
7.88166	0.563
7.91485	0.486
7.94804	0.419
7.98123	0.428
8.01442	0.407
8.04761	0.2
8.0808	0.082
8.11399	0.078
8.14719	0.209
8.18038	0.335
8.21357	0.41
8.24676	0.479
8.27995	0.519
8.31314	0.547
8.34633	0.58
8.37952	0.6
8.41272	0.59
8.44591	0.577
8.4791	0.62
8.51229	0.636
8.54548	0.644
8.57867	0.65
8.61186	0.629
8.64505	0.47
8.67825	0.451
8.71144	0.5
8.74463	0.49
8.77782	0.589
8.81101	0.634
8.8442	0.638
8.87739	0.648
8.91058	0.661
8.94378	0.662
8.97697	0.656
9.01016	0.642
9.04335	0.551
9.07654	0.561
9.10973	0.597
9.14292	0.521
9.17611	0.544
9.20931	0.625
9.2425	0.649
9.27569	0.645
9.30888	0.608
9.34207	0.479
9.37526	0.3
9.40845	0.342
9.44164	0.46
9.47484	0.529
9.50803	0.559
9.54122	0.61
9.57441	0.618
9.6076	0.628
9.64079	0.65
9.67398	0.665
9.70717	0.67
9.74037	0.669
9.77356	0.65
9.80675	0.579
9.83994	0.624
9.87313	0.64
9.90632	0.638
9.93951	0.652
9.9727	0.64
10.0059	0.646
10.0391	0.66
10.0723	0.673
10.1055	0.679
10.1387	0.689
10.1719	0.679
10.205	0.679
10.2382	0.681
10.2714	0.679
10.3046	0.681
10.3378	0.679
10.371	0.66
10.4042	0.642
10.4374	0.66
10.4706	0.673
10.5038	0.678
10.537	0.681
10.5701	0.682
10.6033	0.685
10.6365	0.687
10.6697	0.686
10.7029	0.69
10.7361	0.689
10.7693	0.69
10.8025	0.689
10.8357	0.671
10.8689	0.64
10.9021	0.633
10.9352	0.671
10.9684	0.685
11.0016	0.695
11.0348	0.698
11.068	0.699
11.1012	0.701
11.1344	0.701
11.1676	0.701
11.2008	0.702
11.234	0.693
11.2672	0.69
11.3004	0.695
11.3335	0.699
11.3667	0.699
11.3999	0.701
11.4331	0.702
11.4663	0.701
11.4995	0.698
11.5327	0.689
11.5659	0.687
11.5991	0.685
11.6323	0.675
11.6655	0.661
11.6986	0.658
11.7318	0.646
11.765	0.629
11.7982	0.592
11.8314	0.535
11.8646	0.43
11.8978	0.46
11.931	0.592
11.9642	0.641
11.9974	0.64
12.0306	0.608
12.0638	0.633
12.0969	0.658
12.1301	0.675
12.1633	0.689
12.1965	0.699
12.2297	0.701
12.2629	0.701
12.2961	0.701
12.3293	0.694
12.3625	0.686
12.3957	0.685
12.4289	0.702
12.462	0.709
12.4952	0.707
12.5284	0.711
12.5616	0.71
12.5948	0.713
12.628	0.714
12.6612	0.71
12.6944	0.717
12.7276	0.719
12.7608	0.715
12.794	0.713
12.8271	0.713
12.8603	0.709
12.8935	0.701
12.9267	0.686
12.9599	0.652
12.9931	0.589
13.0263	0.572
13.0595	0.563
13.0927	0.484
13.1259	0.467
13.1591	0.535
13.1923	0.612
13.2254	0.658
13.2586	0.666
13.2918	0.667
13.325	0.675
13.3582	0.687
13.3914	0.702
13.4246	0.715
13.4578	0.715
13.491	0.71
13.5242	0.709
13.5574	0.709
13.5905	0.718
13.6237	0.726
13.6569	0.727
13.6901	0.721
13.7233	0.71
13.7565	0.698
13.7897	0.682
13.8229	0.666
13.8561	0.665
13.8893	0.681
13.9225	0.675
13.9557	0.649
13.9888	0.626
14.022	0.666
14.0552	0.711
14.0884	0.73
14.1216	0.737
14.1548	0.739
14.188	0.742
14.2212	0.745
14.2544	0.747
14.2876	0.747
14.3208	0.741
14.3539	0.745
14.3871	0.738
14.4203	0.733
14.4535	0.729
14.4867	0.715
14.5199	0.689
14.5531	0.633
14.5863	0.569
14.6195	0.515
14.6527	0.521
14.6859	0.557
14.719	0.644
14.7522	0.69
14.7854	0.729
14.8186	0.73
14.8518	0.726
14.885	0.722
14.9182	0.715
14.9514	0.721
14.9846	0.735
15.0178	0.734
15.051	0.734
