Infrared Spectrum: P-PHENYLAZO CARBANILIC ACID, TETRAHYDROLINALOOL ESTER
Formula: C23 H31 N3 O2
CAS: 95293-43-9
State: SOLID (1.5 mg / 100 mg KBr)
Melting point: 121-121.5 C
Class: COBLENTZ
Instrument: Not specified, most likely a grating spectrometer.
Sampling: TRANSMISSION
Resolution: 4
Origin: CITRUS EXPERIMENT STATION, UNIVERSITY OF FLORIDA (G. EDWARDS)
MICROMETERS	TRANSMITTANCE
2.02	0.842
2.05316	0.84
2.08632	0.842
2.11948	0.845
2.15264	0.845
2.1858	0.844
2.21895	0.845
2.25211	0.846
2.28527	0.846
2.31843	0.848
2.35159	0.85
2.38475	0.849
2.41791	0.849
2.45107	0.849
2.48423	0.85
2.51739	0.852
2.55055	0.853
2.5837	0.852
2.61686	0.856
2.65002	0.85
2.68318	0.852
2.71634	0.85
2.7495	0.846
2.78266	0.848
2.81582	0.849
2.84898	0.845
2.88214	0.841
2.9153	0.84
2.94845	0.836
2.98161	0.828
3.01477	0.614
3.04793	0.677
3.08109	0.762
3.11425	0.8
3.14741	0.82
3.18057	0.825
3.21373	0.825
3.24689	0.825
3.28005	0.817
3.3132	0.801
3.34636	0.817
3.37952	0.781
3.41268	0.686
3.44584	0.669
3.479	0.722
3.51216	0.748
3.54532	0.806
3.57848	0.833
3.61164	0.836
3.6448	0.837
3.67795	0.842
3.71111	0.845
3.74427	0.846
3.77743	0.846
3.81059	0.846
3.84375	0.841
3.87691	0.841
3.91007	0.845
3.94323	0.846
3.97639	0.846
4.00955	0.849
4.0427	0.85
4.07586	0.849
4.10902	0.848
4.14218	0.848
4.17534	0.844
4.2085	0.828
4.24166	0.828
4.27482	0.832
4.30798	0.833
4.34114	0.837
4.3743	0.841
4.40745	0.844
4.44061	0.844
4.47377	0.844
4.50693	0.844
4.54009	0.842
4.57325	0.842
4.60641	0.844
4.63957	0.844
4.67273	0.845
4.70589	0.845
4.73905	0.845
4.7722	0.845
4.80536	0.845
4.83852	0.845
4.87168	0.845
4.90484	0.845
4.938	0.845
4.97116	0.844
5.00432	0.842
5.03748	0.84
5.07064	0.836
5.1038	0.833
5.13695	0.841
5.17011	0.836
5.20327	0.83
5.23643	0.834
5.26959	0.836
5.30275	0.838
5.33591	0.838
5.36907	0.838
5.40223	0.838
5.43539	0.836
5.46855	0.833
5.5017	0.832
5.53486	0.83
5.56802	0.832
5.60118	0.832
5.63434	0.83
5.6675	0.825
5.70066	0.801
5.73382	0.781
5.76698	0.741
5.80014	0.644
5.8333	0.564
5.86645	0.426
5.89961	0.564
5.93277	0.749
5.96593	0.781
5.99909	0.786
6.03225	0.793
6.06541	0.796
6.09857	0.793
6.13173	0.784
6.16489	0.745
6.19805	0.633
6.2312	0.474
6.26436	0.608
6.29752	0.726
6.33068	0.772
6.36384	0.744
6.397	0.594
6.43016	0.476
6.46332	0.332
6.49648	0.38
6.52964	0.553
6.5628	0.636
6.59595	0.652
6.62911	0.652
6.66227	0.712
6.69543	0.748
6.72859	0.746
6.76175	0.704
6.79491	0.665
6.82807	0.642
6.86123	0.697
6.89439	0.702
6.92755	0.64
6.9607	0.705
6.99386	0.754
7.02702	0.744
7.06018	0.668
7.09334	0.612
7.1265	0.726
7.15966	0.749
7.19282	0.733
7.22598	0.689
7.25914	0.706
7.2923	0.734
7.32545	0.762
7.35861	0.765
7.39177	0.752
7.42493	0.741
7.45809	0.697
7.49125	0.668
7.52441	0.634
7.55757	0.621
7.59073	0.637
7.62389	0.6
7.65705	0.56
7.6902	0.641
7.72336	0.736
7.75652	0.744
7.78968	0.734
7.82284	0.692
7.856	0.658
7.88916	0.594
7.92232	0.608
7.95548	0.637
7.98864	0.609
8.0218	0.473
8.05495	0.321
8.08811	0.326
8.12127	0.369
8.15443	0.425
8.18759	0.51
8.22075	0.586
8.25391	0.626
8.28707	0.644
8.32023	0.625
8.35339	0.644
8.38655	0.68
8.4197	0.693
8.45286	0.686
8.48602	0.668
8.51918	0.65
8.55234	0.658
8.5855	0.653
8.61866	0.589
8.65182	0.492
8.68498	0.509
8.71814	0.549
8.7513	0.52
8.78445	0.604
8.81761	0.658
8.85077	0.685
8.88393	0.67
8.91709	0.669
8.95025	0.696
8.98341	0.696
9.01657	0.69
9.04973	0.721
9.08289	0.729
9.11605	0.733
9.1492	0.733
9.18236	0.734
9.21552	0.737
9.24868	0.737
9.28184	0.728
9.315	0.705
9.34816	0.668
9.38132	0.65
9.41448	0.644
9.44764	0.637
9.4808	0.61
9.51395	0.588
9.54711	0.581
9.58027	0.604
9.61343	0.662
9.64659	0.704
9.67975	0.713
9.71291	0.73
9.74607	0.733
9.77923	0.73
9.81239	0.712
9.84555	0.722
9.8787	0.729
9.91186	0.729
9.94502	0.73
9.97818	0.732
10.0113	0.732
10.0445	0.733
10.0777	0.741
10.1108	0.749
10.144	0.757
10.1771	0.761
10.2103	0.76
10.2435	0.757
10.2766	0.753
10.3098	0.756
10.3429	0.76
10.3761	0.761
10.4093	0.764
10.4424	0.766
10.4756	0.766
10.5087	0.768
10.5419	0.769
10.575	0.769
10.6082	0.765
10.6414	0.766
10.6745	0.768
10.7077	0.768
10.7408	0.762
10.774	0.746
10.8072	0.734
10.8403	0.733
10.8735	0.736
10.9066	0.742
10.9398	0.752
10.973	0.754
11.0061	0.752
11.0393	0.746
11.0724	0.74
11.1056	0.736
11.1387	0.733
11.1719	0.734
11.2051	0.741
11.2382	0.749
11.2714	0.752
11.3045	0.754
11.3377	0.758
11.3709	0.76
11.404	0.761
11.4372	0.758
11.4703	0.754
11.5035	0.752
11.5367	0.742
11.5698	0.733
11.603	0.726
11.6361	0.71
11.6693	0.684
11.7025	0.636
11.7356	0.581
11.7688	0.561
11.8019	0.586
11.8351	0.625
11.8682	0.661
11.9014	0.684
11.9346	0.704
11.9677	0.706
12.0009	0.713
12.034	0.717
12.0672	0.721
12.1004	0.726
12.1335	0.732
12.1667	0.736
12.1998	0.738
12.233	0.741
12.2662	0.741
12.2993	0.744
12.3325	0.745
12.3656	0.745
12.3988	0.745
12.432	0.745
12.4651	0.745
12.4983	0.745
12.5314	0.745
12.5646	0.744
12.5977	0.742
12.6309	0.741
12.6641	0.74
12.6972	0.737
12.7304	0.734
12.7635	0.73
12.7967	0.726
12.8299	0.724
12.863	0.722
12.8962	0.706
12.9293	0.686
12.9625	0.652
12.9957	0.624
13.0288	0.61
13.062	0.626
13.0951	0.656
13.1283	0.693
13.1615	0.713
13.1946	0.721
13.2278	0.728
13.2609	0.73
13.2941	0.734
13.3273	0.736
13.3604	0.737
13.3936	0.737
13.4267	0.737
13.4599	0.737
13.493	0.737
13.5262	0.738
13.5594	0.738
13.5925	0.74
13.6257	0.74
13.6588	0.74
13.692	0.74
13.7252	0.741
13.7583	0.741
13.7915	0.741
13.8246	0.738
13.8578	0.725
13.891	0.709
13.9241	0.712
13.9573	0.72
13.9904	0.722
14.0236	0.725
14.0568	0.726
14.0899	0.726
14.1231	0.726
14.1562	0.726
14.1894	0.729
14.2225	0.734
14.2557	0.738
14.2889	0.741
14.322	0.742
14.3552	0.748
14.3883	0.753
14.4215	0.758
14.4547	0.744
14.4878	0.73
14.521	0.702
14.5541	0.674
14.5873	0.67
14.6205	0.694
14.6536	0.737
14.6868	0.788
14.7199	0.805
14.7531	0.83
14.7863	0.84
14.8194	0.844
14.8526	0.846
14.8857	0.841
14.9189	0.822
14.952	0.812
14.9852	0.853
