Infrared Spectrum: P-PHENYLAZO CARBANILIC ACID, n-OCTYL ESTER
Formula: C21 H27 N3 O2
CAS: 95291-05-7
State: SOLID (1.8 mg / 100 mg KBr)
Melting point: 112.5-113.5 C
Class: COBLENTZ
Instrument: Not specified, most likely a grating spectrometer.
Sampling: TRANSMISSION
Resolution: 4
Origin: CITRUS EXPERIMENT STATION, UNIVERSITY OF FLORIDA (G. EDWARDS)
MICROMETERS	TRANSMITTANCE
2.02	0.885
2.05311	0.887
2.08623	0.89
2.11934	0.891
2.15245	0.891
2.18556	0.893
2.21868	0.897
2.25179	0.899
2.2849	0.902
2.31802	0.903
2.35113	0.906
2.38424	0.905
2.41735	0.903
2.45047	0.903
2.48358	0.906
2.51669	0.911
2.54981	0.905
2.58292	0.915
2.61603	0.915
2.64914	0.921
2.68226	0.926
2.71537	0.929
2.74848	0.927
2.78159	0.933
2.81471	0.93
2.84782	0.93
2.88093	0.89
2.91405	0.671
2.94716	0.754
2.98027	0.894
3.01338	0.918
3.0465	0.926
3.07961	0.929
3.11272	0.93
3.14584	0.922
3.17895	0.913
3.21206	0.899
3.24517	0.915
3.27829	0.874
3.3114	0.691
3.34451	0.622
3.37763	0.766
3.41074	0.698
3.44385	0.765
3.47696	0.891
3.51008	0.903
3.54319	0.903
3.5763	0.909
3.60942	0.915
3.64253	0.917
3.67564	0.915
3.70875	0.921
3.74187	0.918
3.77498	0.915
3.80809	0.918
3.8412	0.918
3.87432	0.919
3.90743	0.926
3.94054	0.926
3.97366	0.929
4.00677	0.922
4.03988	0.925
4.07299	0.931
4.10611	0.929
4.13922	0.919
4.17233	0.925
4.20545	0.925
4.23856	0.93
4.27167	0.933
4.30478	0.931
4.3379	0.929
4.37101	0.931
4.40412	0.931
4.43724	0.933
4.47035	0.931
4.50346	0.933
4.53657	0.931
4.56969	0.931
4.6028	0.93
4.63591	0.934
4.66903	0.931
4.70214	0.931
4.73525	0.931
4.76836	0.933
4.80148	0.934
4.83459	0.933
4.8677	0.93
4.90081	0.934
4.93393	0.931
4.96704	0.934
5.00015	0.925
5.03327	0.925
5.06638	0.926
5.09949	0.93
5.1326	0.919
5.16572	0.927
5.19883	0.926
5.23194	0.927
5.26506	0.93
5.29817	0.931
5.33128	0.93
5.36439	0.931
5.39751	0.929
5.43062	0.923
5.46373	0.921
5.49685	0.919
5.52996	0.918
5.56307	0.915
5.59618	0.914
5.6293	0.897
5.66241	0.862
5.69552	0.803
5.72864	0.702
5.76175	0.36
5.79486	0.411
5.82797	0.682
5.86109	0.803
5.8942	0.861
5.92731	0.881
5.96042	0.902
5.99354	0.913
6.02665	0.902
6.05976	0.895
6.09288	0.818
6.12599	0.604
6.1591	0.46
6.19221	0.587
6.22533	0.743
6.25844	0.809
6.29155	0.779
6.32467	0.635
6.35778	0.435
6.39089	0.332
6.424	0.392
6.45712	0.516
6.49023	0.708
6.52334	0.757
6.55646	0.773
6.58957	0.794
6.62268	0.802
6.65579	0.794
6.68891	0.732
6.72202	0.688
6.75513	0.658
6.78825	0.795
6.82136	0.794
6.85447	0.65
6.88758	0.742
6.9207	0.815
6.95381	0.793
6.98692	0.591
7.02003	0.692
7.05315	0.817
7.08626	0.827
7.11937	0.815
7.15249	0.807
7.1856	0.779
7.21871	0.79
7.25182	0.818
7.28494	0.843
7.31805	0.843
7.35116	0.827
7.38428	0.802
7.41739	0.774
7.4505	0.706
7.48361	0.667
7.51673	0.608
7.54984	0.51
7.58295	0.582
7.61607	0.687
7.64918	0.775
7.68229	0.809
7.7154	0.802
7.74852	0.781
7.78163	0.738
7.81474	0.668
7.84786	0.599
7.88097	0.658
7.91408	0.572
7.94719	0.373
7.98031	0.233
8.01342	0.295
8.04653	0.483
8.07964	0.611
8.11276	0.672
8.14587	0.691
8.17898	0.734
8.2121	0.777
8.24521	0.793
8.27832	0.802
8.31143	0.807
8.34455	0.783
8.37766	0.786
8.41077	0.827
8.44389	0.834
8.477	0.831
8.51011	0.834
8.54322	0.809
8.57634	0.704
8.60945	0.63
8.64256	0.706
8.67568	0.668
8.70879	0.746
8.7419	0.798
8.77501	0.807
8.80813	0.83
8.84124	0.838
8.87435	0.843
8.90747	0.842
8.94058	0.807
8.97369	0.732
9.0068	0.803
9.03992	0.825
9.07303	0.803
9.10614	0.722
9.13925	0.643
9.17237	0.682
9.20548	0.77
9.23859	0.806
9.27171	0.775
9.30482	0.647
9.33793	0.672
9.37104	0.683
9.40416	0.695
9.43727	0.754
9.47038	0.799
9.5035	0.819
9.53661	0.826
9.56972	0.829
9.60283	0.849
9.63595	0.855
9.66906	0.862
9.70217	0.849
9.73529	0.793
9.7684	0.791
9.80151	0.825
9.83462	0.834
9.86774	0.841
9.90085	0.849
9.93396	0.851
9.96708	0.855
10.0002	0.842
10.0333	0.842
10.0664	0.854
10.0995	0.859
10.1326	0.859
10.1658	0.858
10.1989	0.851
10.232	0.831
10.2651	0.823
10.2982	0.83
10.3313	0.842
10.3644	0.85
10.3975	0.855
10.4307	0.855
10.4638	0.861
10.4969	0.862
10.53	0.858
10.5631	0.859
10.5962	0.866
10.6293	0.867
10.6624	0.865
10.6956	0.859
10.7287	0.858
10.7618	0.845
10.7949	0.815
10.828	0.805
10.8611	0.843
10.8942	0.863
10.9273	0.867
10.9605	0.866
10.9936	0.863
11.0267	0.865
11.0598	0.865
11.0929	0.866
11.126	0.863
11.1591	0.857
11.1922	0.858
11.2254	0.866
11.2585	0.867
11.2916	0.859
11.3247	0.863
11.3578	0.866
11.3909	0.865
11.424	0.862
11.4572	0.853
11.4903	0.845
11.5234	0.842
11.5565	0.833
11.5896	0.821
11.6227	0.805
11.6558	0.797
11.6889	0.781
11.7221	0.735
11.7552	0.675
11.7883	0.628
11.8214	0.666
11.8545	0.743
11.8876	0.785
11.9207	0.766
11.9538	0.759
11.987	0.794
12.0201	0.822
12.0532	0.837
12.0863	0.851
12.1194	0.862
12.1525	0.858
12.1856	0.855
12.2187	0.849
12.2519	0.847
12.285	0.835
12.3181	0.837
12.3512	0.854
12.3843	0.857
12.4174	0.855
12.4505	0.859
12.4836	0.862
12.5168	0.858
12.5499	0.855
12.583	0.855
12.6161	0.854
12.6492	0.854
12.6823	0.855
12.7154	0.857
12.7486	0.855
12.7817	0.843
12.8148	0.838
12.8479	0.825
12.881	0.813
12.9141	0.767
12.9472	0.722
12.9803	0.68
13.0135	0.615
13.0466	0.644
13.0797	0.714
13.1128	0.758
13.1459	0.754
13.179	0.753
13.2121	0.763
13.2452	0.774
13.2784	0.809
13.3115	0.837
13.3446	0.853
13.3777	0.859
13.4108	0.863
13.4439	0.861
13.477	0.863
13.5101	0.861
13.5433	0.865
13.5764	0.863
13.6095	0.855
13.6426	0.851
13.6757	0.835
13.7088	0.802
13.7419	0.789
13.775	0.793
13.8082	0.805
13.8413	0.809
13.8744	0.771
13.9075	0.755
13.9406	0.791
13.9737	0.834
14.0068	0.853
14.04	0.861
14.0731	0.869
14.1062	0.875
14.1393	0.878
14.1724	0.878
14.2055	0.875
14.2386	0.866
14.2717	0.869
14.3049	0.87
14.338	0.869
14.3711	0.869
14.4042	0.851
14.4373	0.805
14.4704	0.758
14.5035	0.663
14.5366	0.644
14.5698	0.668
14.6029	0.742
14.636	0.803
14.6691	0.853
14.7022	0.87
14.7353	0.873
14.7684	0.879
14.8015	0.873
14.8347	0.865
14.8678	0.853
14.9009	0.871
14.934	0.943
14.9671	0.985
