Infrared Spectrum: ETHYL P-NITRO CINNAMATE
Formula: C11 H11 N O4
CAS: 953-26-4
State: SOLID (MULL)
Melting point: 136-138 C
Class: COBLENTZ
Instrument: Not specified, most likely a prism, grating, or hybrid spectrometer.
Sampling: TRANSMISSION
Resolution: 4
Origin: WYANDOTTE CHEMICALS CORP., WYANDOTTE, MICHIGAN, USA
MICROMETERS	TRANSMITTANCE
2.018	0.519
2.05677	0.519
2.09554	0.532
2.13432	0.548
2.17309	0.556
2.21186	0.571
2.25063	0.574
2.28941	0.582
2.32818	0.611
2.36695	0.618
2.40572	0.627
2.44449	0.645
2.48327	0.663
2.52204	0.671
2.56081	0.689
2.59958	0.703
2.63836	0.724
2.67713	0.731
2.7159	0.733
2.75467	0.744
2.79344	0.754
2.83222	0.757
2.87099	0.75
2.90976	0.744
2.94853	0.755
2.9873	0.75
3.02608	0.762
3.06485	0.773
3.10362	0.796
3.14239	0.781
3.18117	0.789
3.21994	0.749
3.25871	0.711
3.29748	0.715
3.33625	0.464
3.37503	0.025
3.4138	0.022
3.45257	0.048
3.49134	0.046
3.53012	0.205
3.56889	0.511
3.60766	0.597
3.64643	0.611
3.6852	0.613
3.72398	0.614
3.76275	0.631
3.80152	0.64
3.84029	0.648
3.87907	0.663
3.91784	0.682
3.95661	0.686
3.99538	0.699
4.03415	0.705
4.07293	0.711
4.1117	0.707
4.15047	0.71
4.18924	0.728
4.22802	0.729
4.26679	0.715
4.30556	0.705
4.34433	0.723
4.3831	0.75
4.42188	0.776
4.46065	0.775
4.49942	0.789
4.53819	0.796
4.57696	0.799
4.61574	0.791
4.65451	0.804
4.69328	0.813
4.73205	0.82
4.77083	0.831
4.8096	0.847
4.84837	0.857
4.88714	0.86
4.92591	0.864
4.96469	0.872
5.00346	0.878
5.04223	0.886
5.081	0.886
5.11978	0.898
5.15855	0.899
5.19732	0.893
5.23609	0.868
5.27486	0.904
5.31364	0.93
5.35241	0.938
5.39118	0.941
5.42995	0.946
5.46873	0.959
5.5075	0.943
5.54627	0.962
5.58504	0.927
5.62381	0.943
5.66259	0.944
5.70136	0.948
5.74013	0.877
5.7789	0.726
5.81768	0.237
5.85645	0.095
5.89522	0.299
5.93399	0.571
5.97276	0.69
6.01154	0.77
6.05031	0.611
6.08908	0.48
6.12785	0.734
6.16662	0.791
6.2054	0.656
6.24417	0.281
6.28294	0.629
6.32171	0.778
6.36049	0.825
6.39926	0.841
6.43803	0.828
6.4768	0.778
6.51557	0.603
6.55435	0.22
6.59312	0.069
6.63189	0.297
6.67066	0.432
6.70944	0.545
6.74821	0.532
6.78698	0.338
6.82575	0.258
6.86452	0.289
6.9033	0.388
6.94207	0.566
6.98084	0.721
7.01961	0.802
7.05839	0.669
7.09716	0.713
7.13593	0.828
7.1747	0.694
7.21347	0.58
7.25225	0.462
7.29102	0.36
7.32979	0.328
7.36856	0.339
7.40733	0.098
7.44611	0.042
7.48488	0.053
7.52365	0.118
7.56242	0.254
7.6012	0.22
7.63997	0.184
7.67874	0.195
7.71751	0.326
7.75628	0.461
7.79506	0.433
7.83383	0.423
7.8726	0.508
7.91137	0.626
7.95015	0.572
7.98892	0.461
8.02769	0.622
8.06646	0.721
8.10523	0.766
8.14401	0.802
8.18278	0.813
8.22155	0.731
8.26032	0.577
8.2991	0.388
8.33787	0.365
8.37664	0.189
8.41541	0.093
8.45418	0.184
8.49296	0.095
8.53173	0.181
8.5705	0.275
8.60927	0.32
8.64805	0.347
8.68682	0.43
8.72559	0.525
8.76436	0.61
8.80313	0.66
8.84191	0.695
8.88068	0.707
8.91945	0.708
8.95822	0.559
8.99699	0.394
9.03577	0.55
9.07454	0.702
9.11331	0.747
9.15208	0.765
9.19086	0.778
9.22963	0.796
9.2684	0.784
9.30717	0.796
9.34594	0.8
9.38472	0.807
9.42349	0.828
9.46226	0.834
9.50103	0.833
9.53981	0.81
9.57858	0.728
9.61735	0.61
9.65612	0.474
9.69489	0.318
9.73367	0.31
9.77244	0.428
9.81121	0.546
9.84998	0.642
9.88876	0.666
9.92753	0.644
9.9663	0.702
10.0051	0.734
10.0438	0.745
10.0826	0.744
10.1214	0.692
10.1602	0.553
10.1989	0.354
10.2377	0.21
10.2765	0.461
10.3152	0.661
10.354	0.739
10.3928	0.665
10.4316	0.477
10.4703	0.598
10.5091	0.76
10.5479	0.825
10.5867	0.847
10.6254	0.865
10.6642	0.872
10.703	0.873
10.7417	0.886
10.7805	0.891
10.8193	0.885
10.8581	0.898
10.8968	0.902
10.9356	0.911
10.9744	0.922
11.0131	0.932
11.0519	0.936
11.0907	0.938
11.1295	0.94
11.1682	0.936
11.207	0.946
11.2458	0.928
11.2846	0.914
11.3233	0.917
11.3621	0.94
11.4009	0.951
11.4396	0.951
11.4784	0.928
11.5172	0.896
11.556	0.88
11.5947	0.765
11.6335	0.451
11.6723	0.457
11.711	0.632
11.7498	0.679
11.7886	0.64
11.8274	0.44
11.8661	0.189
11.9049	0.216
11.9437	0.512
11.9825	0.739
12.0212	0.805
12.06	0.778
12.0988	0.689
12.1375	0.644
12.1763	0.734
12.2151	0.81
12.2539	0.847
12.2926	0.849
12.3314	0.855
12.3702	0.87
12.4089	0.893
12.4477	0.922
12.4865	0.935
12.5253	0.954
12.564	0.967
12.6028	0.961
12.6416	0.946
12.6804	0.954
12.7191	0.938
12.7579	0.94
12.7967	0.935
12.8354	0.932
12.8742	0.936
12.913	0.93
12.9518	0.93
12.9905	0.928
13.0293	0.907
13.0681	0.891
13.1068	0.823
13.1456	0.655
13.1844	0.364
13.2232	0.38
13.2619	0.642
13.3007	0.791
13.3395	0.86
13.3783	0.885
13.417	0.862
13.4558	0.822
13.4946	0.792
13.5333	0.797
13.5721	0.818
13.6109	0.843
13.6497	0.862
13.6884	0.881
13.7272	0.885
13.766	0.883
13.8047	0.878
13.8435	0.855
13.8823	0.81
13.9211	0.686
13.9598	0.556
13.9986	0.601
14.0374	0.739
14.0762	0.857
14.1149	0.904
14.1537	0.922
14.1925	0.936
14.2312	0.948
14.27	0.944
14.3088	0.956
14.3476	0.949
14.3863	0.923
14.4251	0.935
14.4639	0.923
14.5026	0.922
14.5414	0.915
14.5802	0.912
14.619	0.906
14.6577	0.902
14.6965	0.888
14.7353	0.885
14.7741	0.878
14.8128	0.859
14.8516	0.841
14.8904	0.81
14.9291	0.758
14.9679	0.692
15.0067	0.613
15.0455	0.576
15.0842	0.608
15.123	0.707
15.1618	0.77
15.2005	0.792
15.2393	0.804
15.2781	0.789
15.3169	0.779
15.3556	0.77
15.3944	0.76
15.4332	0.745
15.472	0.737
15.5107	0.724
15.5495	0.71
15.5883	0.707
15.627	0.695
15.6658	0.681
15.7046	0.673
15.7434	0.658
15.7821	0.648
15.8209	0.634
15.8597	0.618
15.8984	0.608
15.9372	0.592
15.976	0.572
