Infrared Spectrum: P-METHOXY CARBANILIC ACID, n-UNDECYL ESTER
Formula: C19 H31 N O3
CAS: 95368-51-7
State: SOLID (1.8 mg / 200 mg KBr)
Class: COBLENTZ
Instrument: Not specified, most likely a grating spectrometer.
Sampling: TRANSMISSION
Resolution: 4
Origin: CITRUS EXPERIMENT STATION, UNIVERSITY OF FLORIDA (G. EDWARDS)
MICROMETERS	TRANSMITTANCE
2.04	0.758
2.07319	0.76
2.10638	0.761
2.13957	0.762
2.17276	0.762
2.20595	0.762
2.23914	0.762
2.27233	0.764
2.30552	0.768
2.33871	0.768
2.3719	0.772
2.40509	0.773
2.43828	0.773
2.47147	0.773
2.50466	0.774
2.53785	0.78
2.57103	0.78
2.60422	0.774
2.63741	0.776
2.6706	0.77
2.70379	0.77
2.73698	0.773
2.77017	0.769
2.80336	0.753
2.83655	0.748
2.86974	0.742
2.90293	0.726
2.93612	0.692
2.96931	0.369
3.0025	0.472
3.03569	0.732
3.06888	0.77
3.10207	0.782
3.13526	0.781
3.16845	0.777
3.20164	0.78
3.23483	0.76
3.26802	0.753
3.30121	0.725
3.3344	0.677
3.36759	0.47
3.40078	0.425
3.43397	0.581
3.46716	0.458
3.50035	0.62
3.53354	0.772
3.56672	0.782
3.59991	0.786
3.6331	0.794
3.66629	0.796
3.69948	0.798
3.73267	0.8
3.76586	0.804
3.79905	0.802
3.83224	0.801
3.86543	0.804
3.89862	0.806
3.93181	0.808
3.965	0.81
3.99819	0.808
4.03138	0.808
4.06457	0.812
4.09776	0.809
4.13095	0.812
4.16414	0.801
4.19733	0.794
4.23052	0.809
4.26371	0.81
4.2969	0.816
4.33009	0.816
4.36328	0.817
4.39647	0.816
4.42966	0.817
4.46285	0.818
4.49604	0.82
4.52923	0.821
4.56242	0.821
4.5956	0.821
4.62879	0.822
4.66198	0.824
4.69517	0.82
4.72836	0.82
4.76155	0.822
4.79474	0.822
4.82793	0.817
4.86112	0.821
4.89431	0.82
4.9275	0.822
4.96069	0.824
4.99388	0.826
5.02707	0.828
5.06026	0.83
5.09345	0.824
5.12664	0.826
5.15983	0.828
5.19302	0.83
5.22621	0.821
5.2594	0.817
5.29259	0.817
5.32578	0.813
5.35897	0.822
5.39216	0.813
5.42535	0.821
5.45854	0.816
5.49173	0.816
5.52492	0.814
5.55811	0.816
5.59129	0.81
5.62448	0.812
5.65767	0.79
5.69086	0.761
5.72405	0.742
5.75724	0.725
5.79043	0.66
5.82362	0.492
5.85681	0.245
5.89	0.294
5.92319	0.612
5.95638	0.722
5.98957	0.752
6.02276	0.77
6.05595	0.788
6.08914	0.777
6.12233	0.772
6.15552	0.738
6.18871	0.75
6.2219	0.621
6.25509	0.572
6.28828	0.762
6.32147	0.754
6.35466	0.702
6.38785	0.626
6.42104	0.42
6.45423	0.192
6.48742	0.188
6.52061	0.356
6.5538	0.437
6.58699	0.533
6.62017	0.708
6.65336	0.734
6.68655	0.722
6.71974	0.673
6.75293	0.604
6.78612	0.584
6.81931	0.636
6.8525	0.729
6.88569	0.752
6.91888	0.725
6.95207	0.76
6.98526	0.76
7.01845	0.618
7.05164	0.573
7.08483	0.738
7.11802	0.796
7.15121	0.805
7.1844	0.798
7.21759	0.794
7.25078	0.79
7.28397	0.793
7.31716	0.794
7.35035	0.784
7.38354	0.768
7.41673	0.757
7.44992	0.734
7.48311	0.694
7.5163	0.709
7.54949	0.682
7.58268	0.613
7.61587	0.444
7.64905	0.564
7.68224	0.484
7.71543	0.6
7.74862	0.696
7.78181	0.708
7.815	0.67
7.84819	0.592
7.88138	0.552
7.91457	0.521
7.94776	0.409
7.98095	0.334
8.01414	0.221
8.04733	0.213
8.08052	0.213
8.11371	0.136
8.1469	0.194
8.18009	0.413
8.21328	0.55
8.24647	0.624
8.27966	0.693
8.31285	0.729
8.34604	0.772
8.37923	0.776
8.41242	0.764
8.44561	0.662
8.4788	0.501
8.51199	0.614
8.54518	0.773
8.57837	0.809
8.61156	0.818
8.64474	0.821
8.67793	0.822
8.71112	0.83
8.74431	0.834
8.7775	0.833
8.81069	0.832
8.84388	0.817
8.87707	0.814
8.91026	0.822
8.94345	0.81
8.97664	0.746
9.00983	0.68
9.04302	0.762
9.07621	0.737
9.1094	0.644
9.14259	0.653
9.17578	0.728
9.20897	0.713
9.24216	0.649
9.27535	0.446
9.30854	0.417
9.34173	0.565
9.37492	0.701
9.40811	0.744
9.4413	0.786
9.47449	0.806
9.50768	0.794
9.54087	0.782
9.57406	0.756
9.60725	0.697
9.64044	0.624
9.67362	0.513
9.70681	0.484
9.74	0.593
9.77319	0.721
9.80638	0.764
9.83957	0.784
9.87276	0.784
9.90595	0.828
9.93914	0.844
9.97233	0.857
10.0055	0.862
10.0387	0.861
10.0719	0.862
10.1051	0.864
10.1383	0.869
10.1715	0.872
10.2047	0.864
10.2378	0.87
10.271	0.873
10.3042	0.853
10.3374	0.842
10.3706	0.856
10.4038	0.87
10.437	0.876
10.4702	0.876
10.5034	0.874
10.5366	0.874
10.5697	0.882
10.6029	0.882
10.6361	0.88
10.6693	0.885
10.7025	0.892
10.7357	0.882
10.7689	0.882
10.8021	0.884
10.8353	0.884
10.8685	0.884
10.9016	0.892
10.9348	0.89
10.968	0.889
11.0012	0.89
11.0344	0.892
11.0676	0.892
11.1008	0.892
11.134	0.89
11.1672	0.894
11.2003	0.885
11.2335	0.881
11.2667	0.884
11.2999	0.884
11.3331	0.894
11.3663	0.896
11.3995	0.896
11.4327	0.896
11.4659	0.893
11.4991	0.888
11.5322	0.881
11.5654	0.878
11.5986	0.878
11.6318	0.877
11.665	0.888
11.6982	0.886
11.7314	0.886
11.7646	0.882
11.7978	0.885
11.831	0.888
11.8641	0.89
11.8973	0.874
11.9305	0.864
11.9637	0.844
11.9969	0.8
12.0301	0.694
12.0633	0.569
12.0965	0.593
12.1297	0.577
12.1629	0.573
12.196	0.744
12.2292	0.814
12.2624	0.808
12.2956	0.786
12.3288	0.808
12.362	0.825
12.3952	0.872
12.4284	0.882
12.4616	0.892
12.4947	0.894
12.5279	0.894
12.5611	0.889
12.5943	0.886
12.6275	0.884
12.6607	0.881
12.6939	0.877
12.7271	0.864
12.7603	0.853
12.7935	0.814
12.8266	0.785
12.8598	0.784
12.893	0.785
12.9262	0.784
12.9594	0.784
12.9926	0.797
13.0258	0.833
13.059	0.862
13.0922	0.878
13.1254	0.892
13.1585	0.9
13.1917	0.908
13.2249	0.909
13.2581	0.908
13.2913	0.898
13.3245	0.882
13.3577	0.872
13.3909	0.837
13.4241	0.805
13.4572	0.804
13.4904	0.818
13.5236	0.832
13.5568	0.846
13.59	0.858
13.6232	0.865
13.6564	0.866
13.6896	0.864
13.7228	0.852
13.756	0.825
13.7891	0.817
13.8223	0.833
13.8555	0.852
13.8887	0.853
13.9219	0.873
13.9551	0.896
13.9883	0.912
14.0215	0.918
14.0547	0.921
14.0879	0.917
14.121	0.916
14.1542	0.916
14.1874	0.917
14.2206	0.92
14.2538	0.917
14.287	0.905
14.3202	0.898
14.3534	0.888
14.3866	0.882
14.4197	0.878
14.4529	0.864
14.4861	0.853
14.5193	0.85
14.5525	0.85
14.5857	0.852
14.6189	0.842
14.6521	0.834
14.6853	0.822
14.7185	0.82
14.7516	0.818
14.7848	0.818
14.818	0.806
14.8512	0.798
14.8844	0.789
14.9176	0.756
14.9508	0.725
14.984	0.741
15.0172	0.753
