Infrared Spectrum: Diethyl 5-hydantoylphosphonate
Formula: C 7 H 13 N 2 O 5 P
CAS: 95378-36-2
State: gas
Origin: EPA-IR VAPOR PHASE LIBRARY
1/CM	ABSORBANCE
549.8	0.005844
559.445	0.008644
569.09	0.005464
578.734	0.003844
588.379	0.002174
598.024	0.000811
607.669	0.0016249
617.313	0.002064
626.958	0.0017008
636.603	0.0012424
646.248	0.0017562
655.893	0.002044
665.537	0.0014969
675.182	0.00101895
684.827	0.000873
694.472	0.0011135
704.116	0.00122
713.761	0.0012628
723.406	0.000836
733.051	0.001898
742.695	0.0013208
752.34	0.0018395
761.985	0.0016027
771.63	0.0008938
781.275	0.002024
790.919	0.0017114
800.564	0.0014763
810.209	0.0015094
819.854	0.003524
829.498	0.0017775
839.143	0.0016747
848.788	0.0017749
858.433	0.0012741
868.078	0.0017367
877.722	0.0018895
887.367	0.0013229
897.012	0.000987651
906.657	0.002294
916.301	0.002844
925.946	0.003264
935.591	0.003444
945.236	0.005574
954.88	0.006314
964.525	0.007804
974.17	0.006324
983.815	0.005194
993.46	0.004004
1003.1	0.004724
1012.75	0.006984
1022.39	0.012144
1032.04	0.014954
1041.68	0.015014
1051.33	0.012554
1060.97	0.009064
1070.62	0.006954
1080.26	0.005394
1089.91	0.005164
1099.55	0.000184
1109.2	0.001365
1118.84	0.000861
1128.49	0.0013383
1138.13	0.000931
1147.78	0.0012897
1157.42	0.0013648
1167.07	0.00083
1176.71	0.002524
1186.36	0.0009192
1196	0.003114
1205.64	0.000371
1215.29	0.0018518
1224.93	0.000761
1234.58	0.0012565
1244.22	0.002144
1253.87	0.002844
1263.51	0.003944
1273.16	0.004954
1282.8	0.007334
1292.45	0.006114
1302.09	0.004064
1311.74	0.003164
1321.38	0.002694
1331.03	0.002854
1340.67	0.002304
1350.32	0.002854
1359.96	0.004884
1369.61	0.007124
1379.25	0.006594
1388.9	0.004104
1398.54	0.002544
1408.18	0.0018716
1417.83	0.0013468
1427.47	0.0013901
1437.12	0.0012479
1446.76	0.0013241
1456.41	0.0012227
1466.05	0.000852
1475.7	0.0010857
1485.34	0.0009708
1494.99	0.00101179
1504.63	0.00097
1514.28	0.0011099
1523.92	0.0009497
1533.57	0.0011306
1543.21	0.000751
1552.86	0.000799
1562.5	0.000859
1572.15	0.00103892
1581.79	0.00104999
1591.44	0.00099778
1601.08	0.00114
1610.73	0.0010848
1620.37	0.0009276
1630.01	0.0011258
1639.66	0.000883
1649.3	0.0008986
1658.95	0.0009618
1668.59	0.0009196
1678.24	0.0013604
1687.88	0.0011505
1697.53	0.0012591
1707.17	0.0012806
1716.82	0.0016724
1726.46	0.0019314
1736.11	0.003534
1745.75	0.004954
1755.4	0.009494
1765.04	0.024514
1774.69	0.032804
1784.33	0.017304
1793.98	0.009204
1803.62	0.010964
1813.27	0.014154
1822.91	0.008024
1832.55	0.003934
1842.2	0.002574
1851.84	0.0017208
1861.49	0.0016672
1871.13	0.0017428
1880.78	0.0013389
1890.42	0.0012165
1900.07	0.0012849
1909.71	0.0013101
1919.36	0.001361
1929	0.0014079
1938.65	0.0011448
1948.29	0.0013143
1957.94	0.0011165
1967.58	0.001248
1977.23	0.001145
1986.87	0.0013903
1996.52	0.0012294
2006.16	0.0013902
2015.81	0.0013336
2025.45	0.0012057
2035.1	0.00105138
2044.74	0.0011121
2054.38	0.0013743
2064.03	0.0011415
2073.67	0.00104958
2083.32	0.000843
2092.96	0.001352
2102.61	0.0013145
2112.25	0.0012818
2121.9	0.0011384
2131.54	0.0013391
2141.19	0.0011961
2150.83	0.001269
2160.48	0.001171
2170.12	0.0013115
2179.77	0.0012204
2189.41	0.0012732
2199.06	0.00104116
2208.7	0.0012984
2218.35	0.0013946
2227.99	0.0013584
2237.64	0.0013568
2247.28	0.0013481
2256.92	0.0012755
2266.57	0.0014643
2276.21	0.0013543
2285.86	0.0012725
2295.5	0.0009522
2305.15	0.0010991
2314.79	0.0012982
2324.44	0.001136
2334.08	0.0013134
2343.73	0.0013944
2353.37	0.0012931
2363.02	0.0012485
2372.66	0.0011381
2382.31	0.001389
2391.95	0.001188
2401.6	0.0016382
2411.24	0.00105438
2420.89	0.0012492
2430.53	0.0011746
2440.18	0.0015863
2449.82	0.000992085
2459.47	0.0016258
2469.11	0.0013545
2478.75	0.0013718
2488.4	0.0011392
2498.04	0.0012329
2507.69	0.0013706
2517.33	0.0014182
2526.98	0.0012966
2536.62	0.0011696
2546.27	0.0011171
2555.91	0.0013068
2565.56	0.001501
2575.2	0.0012994
2584.85	0.0015303
2594.49	0.0011531
2604.14	0.00103953
2613.78	0.0014513
2623.43	0.0013354
2633.07	0.0018797
2642.72	0.0013418
2652.36	0.00099991
2662.01	0.0016441
2671.65	0.0012464
2681.29	0.001668
2690.94	0.001295
2700.58	0.0011536
2710.23	0.0012475
2719.87	0.0013524
2729.52	0.0016508
2739.16	0.0016436
2748.81	0.0016074
2758.45	0.00107704
2768.1	0.001658
2777.74	0.0016957
2787.39	0.0015746
2797.03	0.0015976
2806.68	0.0009636
2816.32	0.0013725
2825.97	0.0015552
2835.61	0.000632
2845.26	0.0015381
2854.9	0.0015782
2864.55	0.0013474
2874.19	0.0015969
2883.84	0.002144
2893.48	0.0019044
2903.12	0.0016309
2912.77	0.002204
2922.41	0.002954
2932.06	0.0019051
2941.7	0.002724
2951.35	0.002554
2960.99	0.0015385
2970.64	0.002504
2980.28	0.003324
2989.93	0.003864
2999.57	0.003244
3009.22	0.002844
3018.86	0.0016861
3028.51	0.0018472
3038.15	0.0018104
3047.8	0.002034
3057.44	0.0011347
3067.09	0.0013653
3076.73	0.000867
3086.38	0.0017498
3096.02	0.0013345
3105.67	0.0013904
3115.31	0.0009492
3124.95	0.0012795
3134.6	0.001191
3144.24	0.0011662
3153.89	0.0012256
3163.53	0.0015714
3173.18	0.0014665
3182.82	0.0013101
3192.47	0.0012134
3202.11	0.0011959
3211.76	0.0017354
3221.4	0.0015583
3231.05	0.00085
3240.69	0.000829
3250.34	0.001646
3259.98	0.000844
3269.63	0.000756
3279.27	0.000819
3288.92	0.0013068
3298.56	0.000492
3308.21	0.00105091
3317.85	0.0011274
3327.49	0.00047
3337.14	0.0016118
3346.78	0.0009145
3356.43	0.00106834
3366.07	0.0013517
3375.72	0.0018359
3385.36	0.0010941
3395.01	0.0019388
3404.65	0.001898
3414.3	0.0014422
3423.94	0.0014787
3433.59	0.0009066
3443.23	0.0013724
3452.88	0.0017879
3462.52	0.003584
3472.17	0.004204
3481.81	0.005044
3491.46	0.004314
3501.1	0.002214
3510.75	0.0014411
3520.39	0.0012626
3530.04	0.0013105
3539.68	0.0014363
3549.32	0.00100821
3558.97	0.0018608
3568.61	0.0016035
3578.26	0.002434
3587.9	0.000884
3597.55	0.0013112
3607.19	0.0013735
3616.84	0.000536
3626.48	0.0015083
3636.13	0.000983485
3645.77	0.000819
3655.42	0.0009314
3665.06	0.0013652
3674.71	0.001134
3684.35	0.0012802
3694	0.0015558
3703.64	0.00103373
3713.29	0.00107191
3722.93	0.000801
3732.58	0.0014158
3742.22	0.0009498
3751.86	0.002204
3761.51	0.0013159
3771.15	0.000456
3780.8	0.0014217
3790.44	0.0013626
3800.09	0.000375
3809.73	0.000693
3819.38	0.0015829
3829.02	0.000277
3838.67	0.000618
3848.31	0.000836
3857.96	0.00084
3867.6	0.000205
3877.25	8.6e-05
3886.89	0.0015176
3896.54	0.0014751
3906.18	0.0011325
3915.83	0.0013078
3925.47	0.0014819
3935.12	0.0011079
3944.76	0.001781
3954.41	0.00108316
3964.05	0.0009664
3973.69	0.0015959
3983.34	0.00078
3992.98	0.000607
