Infrared Spectrum: 2-(M-HYDROXYPHENOXY)-3-METHYL PYRAZINE
Formula: C11 H10 N2 O2
CAS: 95390-42-4
State: SOLID (MINERAL OIL MULL)
Melting point: 175-177 C
Class: COBLENTZ
Instrument: Not specified, most likely a prism, grating, or hybrid spectrometer.
Sampling: TRANSMISSION
Resolution: 4
Origin: WYANDOTTE CHEMICALS CORP., WYANDOTTE, MICHIGAN, USA
MICROMETERS	TRANSMITTANCE
2.04	0.63
2.07983	0.644
2.11966	0.652
2.15949	0.657
2.19931	0.649
2.23914	0.653
2.27897	0.668
2.3188	0.677
2.35863	0.687
2.39846	0.698
2.43829	0.703
2.47811	0.715
2.51794	0.725
2.55777	0.738
2.5976	0.748
2.63743	0.759
2.67726	0.778
2.71709	0.781
2.75691	0.789
2.79674	0.801
2.83657	0.801
2.8764	0.801
2.91623	0.801
2.95606	0.801
2.99588	0.793
3.03571	0.758
3.07554	0.701
3.11537	0.627
3.1552	0.539
3.19503	0.466
3.23486	0.374
3.27468	0.311
3.31451	0.243
3.35434	0.043
3.39417	0.038
3.434	0.046
3.47383	0.061
3.51366	0.12
3.55348	0.301
3.59331	0.357
3.63314	0.448
3.67297	0.47
3.7128	0.385
3.75263	0.322
3.79246	0.413
3.83228	0.461
3.87211	0.402
3.91194	0.405
3.95177	0.485
3.9916	0.569
4.03143	0.604
4.07126	0.6
4.11108	0.642
4.15091	0.668
4.19074	0.7
4.23057	0.731
4.2704	0.731
4.31023	0.741
4.35005	0.773
4.38988	0.814
4.42971	0.832
4.46954	0.842
4.50937	0.857
4.5492	0.86
4.58903	0.874
4.62885	0.88
4.66868	0.88
4.70851	0.902
4.74834	0.912
4.78817	0.922
4.828	0.913
4.86783	0.922
4.90765	0.932
4.94748	0.937
4.98731	0.94
5.02714	0.948
5.06697	0.948
5.1068	0.958
5.14663	0.955
5.18645	0.956
5.22628	0.958
5.26611	0.937
5.30594	0.92
5.34577	0.942
5.3856	0.95
5.42543	0.951
5.46525	0.932
5.50508	0.925
5.54491	0.899
5.58474	0.905
5.62457	0.913
5.6644	0.9
5.70422	0.903
5.74405	0.89
5.78388	0.88
5.82371	0.867
5.86354	0.842
5.90337	0.86
5.9432	0.869
5.98302	0.852
6.02285	0.86
6.06268	0.89
6.10251	0.855
6.14234	0.493
6.18217	0.14
6.222	0.314
6.26182	0.587
6.30165	0.769
6.34148	0.804
6.38131	0.799
6.42114	0.604
6.46097	0.506
6.5008	0.68
6.54062	0.761
6.58045	0.708
6.62028	0.465
6.66011	0.177
6.69994	0.104
6.73977	0.216
6.7796	0.223
6.81942	0.208
6.85925	0.211
6.89908	0.231
6.93891	0.203
6.97874	0.225
7.01857	0.278
7.05839	0.145
7.09822	0.062
7.13805	0.142
7.17788	0.205
7.21771	0.197
7.25754	0.235
7.29737	0.304
7.33719	0.269
7.37702	0.273
7.41685	0.405
7.45668	0.47
7.49651	0.405
7.53634	0.476
7.57617	0.458
7.61599	0.455
7.65582	0.395
7.69565	0.15
7.73548	0.1
7.77531	0.144
7.81514	0.294
7.85497	0.523
7.89479	0.407
7.93462	0.425
7.97445	0.577
8.01428	0.475
8.05411	0.339
8.09394	0.493
8.13377	0.557
8.17359	0.663
8.21342	0.75
8.25325	0.763
8.29308	0.653
8.33291	0.311
8.37274	0.17
8.41256	0.397
8.45239	0.463
8.49222	0.236
8.53205	0.059
8.57188	0.092
8.61171	0.23
8.65154	0.355
8.69136	0.485
8.73119	0.541
8.77102	0.329
8.81085	0.193
8.85068	0.355
8.89051	0.478
8.93034	0.579
8.97016	0.624
9.00999	0.668
9.04982	0.697
9.08965	0.718
9.12948	0.715
9.16931	0.726
9.20914	0.753
9.24896	0.7
9.28879	0.668
9.32862	0.751
9.36845	0.786
9.40828	0.799
9.44811	0.802
9.48794	0.809
9.52776	0.821
9.56759	0.821
9.60742	0.821
9.64725	0.816
9.68708	0.789
9.72691	0.789
9.76673	0.821
9.80656	0.852
9.84639	0.869
9.88622	0.882
9.92605	0.877
9.96588	0.508
10.0057	0.658
10.0455	0.791
10.0854	0.798
10.1252	0.763
10.165	0.663
10.2048	0.629
10.2447	0.668
10.2845	0.597
10.3243	0.334
10.3642	0.223
10.404	0.314
10.4438	0.443
10.4836	0.602
10.5235	0.67
10.5633	0.697
10.6031	0.735
10.643	0.764
10.6828	0.778
10.7226	0.788
10.7624	0.798
10.8023	0.806
10.8421	0.812
10.8819	0.821
10.9218	0.822
10.9616	0.821
11.0014	0.814
11.0412	0.789
11.0811	0.698
11.1209	0.486
11.1607	0.495
11.2006	0.609
11.2404	0.581
11.2802	0.548
11.32	0.591
11.3599	0.607
11.3997	0.619
11.4395	0.627
11.4794	0.632
11.5192	0.639
11.559	0.579
11.5988	0.544
11.6387	0.503
11.6785	0.359
11.7183	0.23
11.7582	0.296
11.798	0.442
11.8378	0.572
11.8776	0.649
11.9175	0.695
11.9573	0.73
11.9971	0.763
12.037	0.789
12.0768	0.807
12.1166	0.819
12.1564	0.831
12.1963	0.844
12.2361	0.855
12.2759	0.865
12.3158	0.87
12.3556	0.874
12.3954	0.875
12.4352	0.879
12.4751	0.879
12.5149	0.877
12.5547	0.85
12.5946	0.817
12.6344	0.854
12.6742	0.895
12.714	0.907
12.7539	0.913
12.7937	0.905
12.8335	0.897
12.8734	0.872
12.9132	0.827
12.953	0.703
12.9928	0.513
13.0327	0.548
13.0725	0.61
13.1123	0.682
13.1522	0.817
13.192	0.874
13.2318	0.885
13.2716	0.879
13.3115	0.854
13.3513	0.788
13.3911	0.612
13.431	0.476
13.4708	0.543
13.5106	0.7
13.5504	0.791
13.5903	0.836
13.6301	0.867
13.6699	0.88
13.7098	0.894
13.7496	0.899
13.7894	0.9
13.8292	0.907
13.8691	0.907
13.9089	0.915
13.9487	0.928
13.9886	0.947
14.0284	0.965
14.0682	0.975
14.108	0.978
14.1479	0.981
14.1877	0.986
14.2275	0.988
14.2674	0.99
14.3072	0.99
14.347	0.988
14.3868	0.988
14.4267	0.985
14.4665	0.976
14.5063	0.956
14.5462	0.902
14.586	0.786
14.6258	0.627
14.6656	0.572
14.7055	0.658
14.7453	0.786
14.7851	0.865
14.825	0.915
14.8648	0.927
14.9046	0.94
14.9444	0.94
14.9843	0.923
15.0241	0.88
15.0639	0.855
15.1038	0.874
15.1436	0.903
15.1834	0.895
15.2232	0.852
15.2631	0.789
15.3029	0.728
15.3427	0.718
15.3826	0.746
15.4224	0.783
15.4622	0.804
15.502	0.806
15.5419	0.809
15.5817	0.811
15.6215	0.807
15.6614	0.798
15.7012	0.788
15.741	0.779
15.7808	0.773
15.8207	0.754
15.8605	0.74
15.9003	0.733
15.9402	0.72
15.98	0.713
