Infrared Spectrum: N-(5-Bromopentyl)phthalimide
Formula: C 13 H 14 Br N O 2
CAS: 954-81-4
State: gas
Origin: EPA-IR VAPOR PHASE LIBRARY
1/CM	ABSORBANCE
549.8	0.009069
559.445	0.006289
569.09	0.006309
578.734	0.004629
588.379	0.002739
598.024	0.003369
607.669	0.004459
617.313	0.007509
626.958	0.004559
636.603	0.004289
646.248	0.007189
655.893	0.007499
665.537	0.004019
675.182	0.002799
684.827	0.004609
694.472	0.010799
704.116	0.023769
713.761	0.093449
723.406	0.063949
733.051	0.021469
742.695	0.013999
752.34	0.008949
761.985	0.006179
771.63	0.005419
781.275	0.006489
790.919	0.006989
800.564	0.003159
810.209	0.002799
819.854	0.002819
829.498	0.002939
839.143	0.002879
848.788	0.003599
858.433	0.005759
868.078	0.009149
877.722	0.009609
887.367	0.008499
897.012	0.007809
906.657	0.008609
916.301	0.010999
925.946	0.012939
935.591	0.013229
945.236	0.013189
954.88	0.011899
964.525	0.009839
974.17	0.008739
983.815	0.008089
993.46	0.008519
1003.1	0.011849
1012.75	0.017029
1022.39	0.027419
1032.04	0.036729
1041.68	0.031469
1051.33	0.021979
1060.97	0.017389
1070.62	0.016619
1080.26	0.016829
1089.91	0.017599
1099.55	0.015669
1109.2	0.014349
1118.84	0.010029
1128.49	0.006839
1138.13	0.005859
1147.78	0.006179
1157.42	0.010329
1167.07	0.011519
1176.71	0.017289
1186.36	0.021099
1196	0.015489
1205.64	0.016889
1215.29	0.015579
1224.93	0.012999
1234.58	0.016009
1244.22	0.020439
1253.87	0.020859
1263.51	0.020119
1273.16	0.016889
1282.8	0.018169
1292.45	0.023989
1302.09	0.028039
1311.74	0.033189
1321.38	0.044019
1331.03	0.053259
1340.67	0.072399
1350.32	0.116829
1359.96	0.164969
1369.61	0.164229
1379.25	0.114879
1388.9	0.146489
1398.54	0.117839
1408.18	0.059819
1417.83	0.031459
1427.47	0.025449
1437.12	0.039679
1446.76	0.048239
1456.41	0.032079
1466.05	0.027769
1475.7	0.016289
1485.34	0.007399
1494.99	0.005379
1504.63	0.004529
1514.28	0.004379
1523.92	0.004449
1533.57	0.004029
1543.21	0.003809
1552.86	0.003939
1562.5	0.004209
1572.15	0.004689
1581.79	0.005289
1591.44	0.006959
1601.08	0.007979
1610.73	0.010029
1620.37	0.007559
1630.01	0.004719
1639.66	0.004049
1649.3	0.004089
1658.95	0.004839
1668.59	0.006389
1678.24	0.009049
1687.88	0.015139
1697.53	0.029999
1707.17	0.056099
1716.82	0.126019
1726.46	0.390769
1736.11	0.486069
1745.75	0.155529
1755.4	0.056049
1765.04	0.037509
1774.69	0.049899
1784.33	0.074969
1793.98	0.032279
1803.62	0.013909
1813.27	0.008769
1822.91	0.006719
1832.55	0.006309
1842.2	0.005959
1851.84	0.004349
1861.49	0.003859
1871.13	0.004119
1880.78	0.003399
1890.42	0.002969
1900.07	0.003059
1909.71	0.003329
1919.36	0.002839
1929	0.002979
1938.65	0.003529
1948.29	0.002499
1957.94	0.002039
1967.58	0.002859
1977.23	0.002199
1986.87	0.001359
1996.52	0.001239
2006.16	0.001209
2015.81	0.0011137
2025.45	0.0009877
2035.1	0.0011289
2044.74	0.0011372
2054.38	0.0011583
2064.03	0.0010262
2073.67	0.000998
2083.32	0.0010588
2092.96	0.0010208
2102.61	0.0008704
2112.25	0.0009413
2121.9	0.0009329
2131.54	0.0009875
2141.19	0.0010532
2150.83	0.0010495
2160.48	0.0010346
2170.12	0.000959
2179.77	0.0009365
2189.41	0.0009324
2199.06	0.0008912
2208.7	0.0007759
2218.35	0.0008653
2227.99	0.0008316
2237.64	0.0010774
2247.28	0.001339
2256.92	0.001249
2266.57	0.0011365
2276.21	0.0010537
2285.86	0.0011404
2295.5	0.0011774
2305.15	0.001279
2314.79	0.001589
2324.44	0.001509
2334.08	0.001479
2343.73	0.001319
2353.37	0.001259
2363.02	0.0011572
2372.66	0.0011527
2382.31	0.001269
2391.95	0.0011707
2401.6	0.001229
2411.24	0.0011672
2420.89	0.001429
2430.53	0.001389
2440.18	0.001459
2449.82	0.001289
2459.47	0.001219
2469.11	0.0011487
2478.75	0.0010981
2488.4	0.0010608
2498.04	0.0009367
2507.69	0.0009447
2517.33	0.0007154
2526.98	0.0006945
2536.62	0.0007158
2546.27	0.0007658
2555.91	0.0006103
2565.56	0.0006048
2575.2	0.0005708
2584.85	0.0005878
2594.49	0.000468
2604.14	0.0005211
2613.78	0.0006824
2623.43	0.0009511
2633.07	0.0010611
2642.72	0.0011104
2652.36	0.0011038
2662.01	0.0011731
2671.65	0.0011249
2681.29	0.001489
2690.94	0.001559
2700.58	0.001679
2710.23	0.001339
2719.87	0.0010743
2729.52	0.0010933
2739.16	0.0010372
2748.81	0.001219
2758.45	0.0011876
2768.1	0.001459
2777.74	0.001709
2787.39	0.001889
2797.03	0.001819
2806.68	0.001969
2816.32	0.002259
2825.97	0.002909
2835.61	0.004049
2845.26	0.006429
2854.9	0.009449
2864.55	0.015139
2874.19	0.018439
2883.84	0.014319
2893.48	0.012899
2903.12	0.014749
2912.77	0.017269
2922.41	0.024979
2932.06	0.036739
2941.7	0.053469
2951.35	0.057909
2960.99	0.034659
2970.64	0.027709
2980.28	0.019499
2989.93	0.010079
2999.57	0.006479
3009.22	0.008169
3018.86	0.007389
3028.51	0.003749
3038.15	0.003949
3047.8	0.005299
3057.44	0.007819
3067.09	0.008969
3076.73	0.009369
3086.38	0.013649
3096.02	0.007899
3105.67	0.002799
3115.31	0.000996
3124.95	0.0007028
3134.6	0.0005021
3144.24	0.0003912
3153.89	0.0003597
3163.53	0.0004822
3173.18	0.0005639
3182.82	0.0004615
3192.47	0.0004047
3202.11	0.0006512
3211.76	0.0008024
3221.4	0.0006488
3231.05	0.0004516
3240.69	0.00019611
3250.34	0.00027527
3259.98	0.0002739
3269.63	0.0003786
3279.27	0.000187
3288.92	0.0001601
3298.56	0.000204535
3308.21	0.00029217
3317.85	0.0001732
3327.49	0.0001369
3337.14	0.0001421
3346.78	0.0003825
3356.43	0.0001525
3366.07	6.4e-05
3375.72	0.000208568
3385.36	0.00021479
3395.01	0.0003459
3404.65	0.0004508
3414.3	0.0004315
3423.94	0.0004742
3433.59	0.0006069
3443.23	0.0009256
3452.88	0.001659
3462.52	0.001849
3472.17	0.001809
3481.81	0.002849
3491.46	0.004629
3501.1	0.005479
3510.75	0.003349
3520.39	0.001459
3530.04	0.0009889
3539.68	0.0008096
3549.32	0.000652
3558.97	0.0007145
3568.61	0.0005268
3578.26	0.0005387
3587.9	0.0004114
3597.55	0.0005336
3607.19	0.00023551
3616.84	0.000201764
3626.48	0.0002591
3636.13	0.000344
3645.77	0.0003832
3655.42	0.000392
3665.06	0.00029244
3674.71	0
3684.35	0.00028743
3694	0.00025687
3703.64	0.0003493
3713.29	0.0001561
3722.93	0.00026163
3732.58	0.0003546
3742.22	0.0004277
3751.86	0.00026177
3761.51	0.00029652
3771.15	0.0003184
3780.8	0.0004723
3790.44	0.0003922
3800.09	0.0003018
3809.73	0.0003451
3819.38	0.0001168
3829.02	0.0001116
3838.67	0.00027206
3848.31	0.0003711
3857.96	0.0003346
3867.6	0.00025635
3877.25	0.0003007
3886.89	0.0003217
3896.54	0.000318
3906.18	0.0003442
3915.83	0.0003665
3925.47	0.0003089
3935.12	0.0003398
3944.76	0.000515
3954.41	0.00029769
3964.05	0.0003382
3973.69	0.0005292
3983.34	0.0003923
3992.98	0.00029095
