Infrared Spectrum: ADENINE, 9-(2-HYDROXYCYCLOHEXYL)-, TRANS-
Formula: C11 H15 N5 O
CAS: 954-62-1
State: SOLID (0.9 mg / 650 mg KBr DISC)
Class: COBLENTZ III
Instrument: PERKIN-ELMER 21 (GRATING)
Instrument parameters: FILTER CHANGE AT ABOUT 1090 CM^-^1.
Sampling: TRANSMISSION
Resolution: 2
Origin: SOUTHERN RESEARCH INSTITUTE
1/CM	TRANSMITTANCE
600	0.755
608.824	0.7639
617.647	0.7631
626.471	0.7466
635.294	0.7184
644.118	0.4662
652.941	0.3704
661.765	0.4959
670.588	0.6316
679.412	0.6382
688.235	0.6705
697.059	0.7158
705.882	0.725
714.706	0.7147
723.529	0.5858
732.353	0.5615
741.176	0.7155
750	0.7494
758.823	0.7669
767.647	0.7676
776.47	0.666
785.294	0.754
794.118	0.5907
802.941	0.6544
811.765	0.7531
820.588	0.8017
829.412	0.783
838.235	0.7531
847.059	0.7432
855.882	0.7509
864.706	0.789
873.529	0.6597
882.353	0.7721
891.176	0.798
900	0.7676
908.823	0.7675
917.647	0.7715
926.47	0.757
935.294	0.8041
944.117	0.7787
952.941	0.6653
961.765	0.5589
970.588	0.6357
979.412	0.7933
988.235	0.797
997.059	0.7821
1005.88	0.7437
1014.71	0.7025
1023.53	0.6744
1032.35	0.6507
1041.18	0.6966
1050	0.6722
1058.82	0.6405
1067.65	0.6688
1076.47	0.4245
1085.29	0.2381
1094.12	0.3236
1102.94	0.498
1111.76	0.703
1120.59	0.727
1129.41	0.725
1138.24	0.7117
1147.06	0.6688
1155.88	0.7505
1164.71	0.7623
1173.53	0.7202
1182.35	0.7256
1191.18	0.7191
1200	0.6452
1208.82	0.5831
1217.65	0.5634
1226.47	0.453
1235.29	0.6084
1244.12	0.6166
1252.94	0.5078
1261.76	0.5157
1270.59	0.6051
1279.41	0.6187
1288.23	0.5695
1297.06	0.3948
1305.88	0.2377
1314.71	0.3528
1323.53	0.535
1332.35	0.5588
1341.18	0.4742
1350	0.4472
1358.82	0.3793
1367.65	0.3935
1376.47	0.4584
1385.29	0.467
1394.12	0.5195
1402.94	0.5961
1411.76	0.5282
1420.59	0.4148
1429.41	0.2717
1438.23	0.39
1447.06	0.5754
1455.88	0.5241
1464.71	0.4902
1473.53	0.5773
1482.35	0.4964
1491.18	0.451
1500	0.5666
1508.82	0.675
1517.65	0.64
1526.47	0.6085
1535.29	0.612
1544.12	0.6891
1552.94	0.6658
1561.76	0.632
1570.59	0.2563
1579.41	0.2913
1588.23	0.5607
1597.06	0.5648
1605.88	0.4123
1614.71	0.2185
1623.53	0.2048
1632.35	0.3225
1641.18	0.3683
1650	0.4029
1658.82	0.507
1667.65	0.5671
1676.47	0.5477
1685.29	0.4538
1694.12	0.3584
1702.94	0.0824
1711.76	0.1217
1720.59	0.3899
1729.41	0.6065
1738.23	0.7269
1747.06	0.7751
1755.88	0.8037
1764.71	0.8275
1773.53	0.8411
1782.35	0.849
1791.18	0.854
1800	0.855
1808.82	0.855
1817.65	0.856
1826.47	0.856
1835.29	0.854
1844.12	0.854
1852.94	0.851
1861.76	0.8486
1870.59	0.839
1879.41	0.8335
1888.23	0.8295
1897.06	0.8311
1905.88	0.84
1914.71	0.846
1923.53	0.8509
1932.35	0.8463
1941.18	0.843
1950	0.845
1958.82	0.8454
1967.65	0.843
1976.47	0.843
1985.29	0.841
1994.12	0.839
2002.94	0.8393
2011.76	0.8357
2020.59	0.8257
2029.41	0.824
2038.23	0.821
2047.06	0.821
2055.88	0.8263
2064.71	0.83
2073.53	0.829
2082.35	0.827
2091.18	0.822
2100	0.826
2108.82	0.825
2117.65	0.8233
2126.47	0.8253
2135.29	0.824
2144.12	0.824
2152.94	0.822
2161.76	0.824
2170.59	0.824
2179.41	0.821
2188.23	0.822
2197.06	0.821
2205.88	0.816
2214.71	0.8157
2223.53	0.813
2232.35	0.8123
2241.18	0.81
2250	0.8087
2258.82	0.8123
2267.65	0.801
2276.47	0.7944
2285.29	0.7897
2294.12	0.788
2302.94	0.7973
2311.76	0.797
2320.59	0.7927
2329.41	0.792
2338.23	0.7887
2347.06	0.783
2355.88	0.781
2364.7	0.776
2373.53	0.7743
2382.35	0.777
2391.18	0.7713
2400	0.769
2408.82	0.7707
2417.65	0.775
2426.47	0.765
2435.29	0.7583
2444.12	0.7553
2452.94	0.754
2461.76	0.754
2470.59	0.748
2479.41	0.7423
2488.23	0.74
2497.06	0.7357
2505.88	0.729
2514.7	0.72
2523.53	0.712
2532.35	0.712
2541.18	0.7093
2550	0.7
2558.82	0.702
2567.65	0.6977
2576.47	0.694
2585.29	0.694
2594.12	0.694
2602.94	0.6937
2611.76	0.6774
2620.59	0.6613
2629.41	0.6523
2638.23	0.6473
2647.06	0.628
2655.88	0.6073
2664.7	0.5967
2673.53	0.591
2682.35	0.587
2691.18	0.5863
2700	0.5883
2708.82	0.5913
2717.65	0.59
2726.47	0.575
2735.29	0.5713
2744.12	0.562
2752.94	0.5597
2761.76	0.5593
2770.59	0.562
2779.41	0.5547
2788.23	0.5457
2797.06	0.533
2805.88	0.496
2814.7	0.4557
2823.53	0.4107
2832.35	0.345
2841.18	0.3646
2850	0.398
2858.82	0.3993
2867.65	0.377
2876.47	0.3593
2885.29	0.348
2894.12	0.3337
2902.94	0.2934
2911.76	0.176
2920.59	0.2153
2929.41	0.3019
2938.23	0.386
2947.06	0.434
2955.88	0.436
2964.7	0.4283
2973.53	0.4107
2982.35	0.3903
2991.18	0.3683
3000	0.3517
3008.82	0.327
3017.65	0.312
3026.47	0.3027
3035.29	0.293
3044.12	0.288
3052.94	0.2837
3061.76	0.2733
3070.59	0.252
3079.41	0.233
3088.23	0.2193
3097.06	0.215
3105.88	0.209
3114.7	0.2
3123.53	0.194
3132.35	0.192
3141.18	0.1923
3150	0.197
3158.82	0.2053
3167.65	0.207
3176.47	0.208
3185.29	0.207
3194.12	0.208
3202.94	0.2027
3211.76	0.202
3220.59	0.2
3229.41	0.1937
3238.23	0.1817
3247.06	0.1687
3255.88	0.175
3264.7	0.184
3273.53	0.1873
3282.35	0.212
3291.18	0.2333
3300	0.2547
3308.82	0.275
3317.65	0.2913
3326.47	0.3123
3335.29	0.3273
3344.12	0.3353
3352.94	0.3433
3361.76	0.3533
3370.59	0.36
3379.41	0.385
3388.23	0.4103
3397.06	0.418
3405.88	0.4307
3414.7	0.4467
3423.53	0.463
3432.35	0.482
3441.17	0.5007
3450	0.5107
3458.82	0.5293
3467.65	0.5467
3476.47	0.565
3485.29	0.5777
3494.12	0.594
3502.94	0.6087
3511.76	0.6343
3520.59	0.6403
3529.41	0.653
3538.23	0.6567
3547.06	0.6707
3555.88	0.7007
3564.7	0.7127
3573.53	0.7277
3582.35	0.7347
3591.17	0.752
3600	0.7637
3608.82	0.7733
3617.65	0.782
3626.47	0.787
3635.29	0.7913
3644.12	0.796
3652.94	0.793
3661.76	0.792
3670.59	0.7933
3679.41	0.798
3688.23	0.8023
3697.06	0.802
3705.88	0.8003
3714.7	0.803
3723.53	0.8017
3732.35	0.8
3741.17	0.796
3750	0.797
3758.82	0.8
3767.65	0.797
3776.47	0.793
3785.29	0.792
3794.12	0.7887
3802.94	0.7847
3811.76	0.784
3820.59	0.782
3829.41	0.781
3838.23	0.781
3847.06	0.781
3855.88	0.782
3864.7	0.7803
3873.53	0.778
3882.35	0.7727
3891.17	0.768
3900	0.765
3908.82	0.767
3917.65	0.769
3926.47	0.7723
3935.29	0.772
3944.12	0.77
3952.94	0.768
3961.76	0.764
3970.59	0.7683
3979.41	0.773
3988.23	0.767
3997.06	0.7657
