Infrared Spectrum: 1,1'-OXY-DI-2-PROPANOL DI-p-NITRO BENZOATE
Formula: C20 H20 N2 O9
CAS: 95429-50-8
State: SOLID (MINERAL OIL MULL)
Class: COBLENTZ
Instrument: Not specified, most likely a prism, grating, or hybrid spectrometer.
Sampling: TRANSMISSION
Resolution: 4
Origin: DOW CHEMICAL COMPANY
MICROMETERS	TRANSMITTANCE
2.041	0.522
2.08212	0.527
2.12323	0.536
2.16435	0.537
2.20547	0.53
2.24658	0.518
2.2877	0.525
2.32881	0.534
2.36993	0.541
2.41105	0.553
2.45216	0.567
2.49328	0.572
2.5344	0.58
2.57551	0.587
2.61663	0.591
2.65775	0.597
2.69886	0.599
2.73998	0.601
2.78109	0.603
2.82221	0.599
2.86333	0.594
2.90444	0.591
2.94556	0.596
2.98668	0.604
3.02779	0.609
3.06891	0.609
3.11003	0.597
3.15114	0.587
3.19226	0.56
3.23337	0.551
3.27449	0.508
3.31561	0.317
3.35672	0.049
3.39784	0.042
3.43896	0.056
3.48007	0.176
3.52119	0.567
3.56231	0.634
3.60342	0.647
3.64454	0.651
3.68565	0.666
3.72677	0.68
3.76789	0.692
3.809	0.706
3.85012	0.725
3.89124	0.74
3.93235	0.752
3.97347	0.761
4.01459	0.761
4.0557	0.762
4.09682	0.766
4.13793	0.762
4.17905	0.773
4.22017	0.785
4.26128	0.8
4.3024	0.798
4.34352	0.798
4.38463	0.81
4.42575	0.817
4.46687	0.819
4.50798	0.823
4.5491	0.826
4.59021	0.829
4.63133	0.835
4.67245	0.84
4.71356	0.836
4.75468	0.855
4.7958	0.864
4.83691	0.872
4.87803	0.872
4.91915	0.881
4.96026	0.886
5.00138	0.893
5.04249	0.893
5.08361	0.879
5.12473	0.881
5.16584	0.91
5.20696	0.922
5.24808	0.931
5.28919	0.945
5.33031	0.951
5.37143	0.953
5.41254	0.957
5.45366	0.955
5.49477	0.938
5.53589	0.951
5.57701	0.936
5.61812	0.874
5.65924	0.793
5.70036	0.678
5.74147	0.45
5.78259	0.199
5.82371	0.427
5.86482	0.613
5.90594	0.687
5.94706	0.731
5.98817	0.771
6.02929	0.817
6.0704	0.84
6.11152	0.855
6.15264	0.737
6.19375	0.572
6.23487	0.685
6.27599	0.797
6.3171	0.829
6.35822	0.812
6.39934	0.773
6.44045	0.67
6.48157	0.355
6.52268	0.211
6.5638	0.429
6.60492	0.592
6.64603	0.628
6.68715	0.615
6.72827	0.498
6.76938	0.268
6.8105	0.152
6.85162	0.202
6.89273	0.367
6.93385	0.63
6.97496	0.719
7.01608	0.711
7.0572	0.673
7.09831	0.723
7.13943	0.649
7.18055	0.494
7.22166	0.281
7.26278	0.369
7.3039	0.412
7.34501	0.312
7.38613	0.268
7.42724	0.402
7.46836	0.505
7.50948	0.415
7.55059	0.348
7.59171	0.405
7.63283	0.359
7.67394	0.319
7.71506	0.252
7.75618	0.142
7.79729	0.108
7.83841	0.163
7.87952	0.247
7.92064	0.353
7.96176	0.419
8.00287	0.446
8.04399	0.482
8.08511	0.541
8.12622	0.58
8.16734	0.601
8.20846	0.63
8.24957	0.652
8.29069	0.668
8.3318	0.683
8.37292	0.69
8.41404	0.587
8.45515	0.522
8.49627	0.554
8.53739	0.582
8.5785	0.582
8.61962	0.536
8.66074	0.572
8.70185	0.62
8.74297	0.567
8.78408	0.479
8.8252	0.359
8.86632	0.28
8.90743	0.259
8.94855	0.324
8.98967	0.407
9.03078	0.29
9.0719	0.266
9.11302	0.328
9.15413	0.264
9.19525	0.305
9.23636	0.417
9.27748	0.486
9.3186	0.527
9.35971	0.57
9.40083	0.604
9.44195	0.637
9.48306	0.659
9.52418	0.671
9.5653	0.689
9.60641	0.702
9.64753	0.719
9.68864	0.738
9.72976	0.756
9.77088	0.768
9.81199	0.723
9.85311	0.604
9.89423	0.573
9.93534	0.501
9.97646	0.484
10.0176	0.601
10.0587	0.663
10.0998	0.697
10.1409	0.713
10.182	0.73
10.2232	0.738
10.2643	0.74
10.3054	0.749
10.3465	0.756
10.3876	0.769
10.4287	0.78
10.4699	0.788
10.511	0.795
10.5521	0.797
10.5932	0.798
10.6343	0.802
10.6754	0.802
10.7166	0.757
10.7577	0.725
10.7988	0.745
10.8399	0.785
10.881	0.795
10.9221	0.805
10.9633	0.819
11.0044	0.829
11.0455	0.831
11.0866	0.831
11.1277	0.831
11.1688	0.833
11.21	0.828
11.2511	0.826
11.2922	0.829
11.3333	0.823
11.3744	0.759
11.4155	0.661
11.4566	0.503
11.4978	0.458
11.5389	0.589
11.58	0.771
11.6211	0.848
11.6622	0.883
11.7033	0.893
11.7445	0.874
11.7856	0.781
11.8267	0.671
11.8678	0.494
11.9089	0.408
11.95	0.539
11.9912	0.654
12.0323	0.711
12.0734	0.759
12.1145	0.78
12.1556	0.797
12.1967	0.809
12.2379	0.814
12.279	0.821
12.3201	0.829
12.3612	0.833
12.4023	0.836
12.4434	0.84
12.4846	0.843
12.5257	0.847
12.5668	0.847
12.6079	0.847
12.649	0.836
12.6901	0.809
12.7313	0.75
12.7724	0.697
12.8135	0.738
12.8546	0.807
12.8957	0.829
12.9368	0.835
12.978	0.831
13.0191	0.828
13.0602	0.826
13.1013	0.824
13.1424	0.819
13.1835	0.814
13.2247	0.807
13.2658	0.798
13.3069	0.792
13.348	0.778
13.3891	0.768
13.4302	0.754
13.4714	0.742
13.5125	0.728
13.5536	0.709
13.5947	0.692
13.6358	0.671
13.6769	0.646
13.718	0.611
13.7592	0.57
13.8003	0.522
13.8414	0.47
13.8825	0.388
13.9236	0.271
13.9647	0.197
14.0059	0.194
14.047	0.271
14.0881	0.369
14.1292	0.457
14.1703	0.542
14.2114	0.603
14.2526	0.632
14.2937	0.652
14.3348	0.671
14.3759	0.682
14.417	0.689
14.4581	0.692
14.4993	0.695
14.5404	0.695
14.5815	0.695
14.6226	0.692
14.6637	0.683
14.7048	0.678
14.746	0.671
14.7871	0.668
14.8282	0.659
14.8693	0.649
14.9104	0.637
14.9515	0.625
14.9927	0.616
15.0338	0.609
15.0749	0.606
15.116	0.599
15.1571	0.592
15.1982	0.587
15.2394	0.582
15.2805	0.573
15.3216	0.568
15.3627	0.56
15.4038	0.554
15.4449	0.548
15.4861	0.53
15.5272	0.525
15.5683	0.515
15.6094	0.503
15.6505	0.496
15.6916	0.489
15.7328	0.481
15.7739	0.477
15.815	0.472
15.8561	0.474
