Infrared Spectrum: Benzofuranone, 2(3H)-, 3-(Beta-benzyloxyethyl)-3-phenyl-,
Formula: C23 H20 O3
CAS: 95435-96-4
State: SOLUTION (7% CHCl3 FOR 2.5-12.5 MICRON) VS SOLVENT
Class: COBLENTZ
Instrument: PERKIN-ELMER 21 (GRATING)
Instrument parameters: FILTER AT ABOUT 10 MICRONS
Path length: 0.010 CM
Resolution: 2
Origin: ABBOTT LABORATORIES
1/CM	TRANSMITTANCE
852	0.8916
860	0.8313
868	0.798
876	0.7336
884	0.7675
892	0.7082
900	0.7037
908	0.6685
916	0.6449
924	0.7581
932	0.7598
940	0.7427
948	0.8078
956	0.8125
964	0.7968
972	0.8047
980	0.7674
988	0.7381
996	0.7142
1004	0.6782
1012	0.6972
1020	0.5957
1028	0.4987
1036	0.3904
1044	0.2649
1052	0.2195
1060	0.3624
1068	0.5122
1076	0.5116
1084	0.4877
1092	0.4392
1100	0.3761
1108	0.4133
1116	0.4345
1124	0.5148
1132	0.3846
1140	0.4244
1148	0.6967
1156	0.7617
1164	0.7793
1172	0.7663
1180	0.7927
1188	0.8304
1196	0.8197
1204	0.6516
1212	0.5693
1220	0.5482
1228	0.5681
1236	0.5914
1244	0.6839
1252	0.731
1260	0.7571
1268	0.7617
1276	0.7514
1284	0.7165
1292	0.6589
1300	0.6911
1308	0.7605
1316	0.7438
1324	0.7278
1332	0.7733
1340	0.8047
1348	0.8055
1356	0.7727
1364	0.6478
1372	0.708
1380	0.791
1388	0.7983
1396	0.8001
1404	0.8143
1412	0.8182
1420	0.8172
1428	0.8105
1436	0.795
1444	0.7589
1452	0.6456
1460	0.5047
1468	0.2812
1476	0.5887
1484	0.4424
1492	0.6493
1500	0.5846
1508	0.7556
1516	0.8841
1524	0.9005
1532	0.9042
1540	0.896
1548	0.8813
1556	0.8696
1564	0.8601
1572	0.8545
1580	0.8396
1588	0.8066
1596	0.7572
1604	0.6495
1612	0.7041
1620	0.7302
1628	0.5948
1636	0.7956
1644	0.8503
1652	0.8556
1660	0.8552
1668	0.8522
1676	0.8491
1684	0.8538
1692	0.8572
1700	0.8577
1708	0.8572
1716	0.8563
1724	0.8538
1732	0.8492
1740	0.8413
1748	0.8292
1756	0.8159
1764	0.7978
1772	0.768
1780	0.7239
1788	0.6307
1796	0.4667
1804	0.2631
1812	0.1069
1820	0.1613
1828	0.3778
1836	0.5925
1844	0.7028
1852	0.784
1860	0.8231
1868	0.8328
1876	0.8334
1884	0.8338
1892	0.8391
1900	0.8465
1908	0.8503
1916	0.8539
1924	0.8571
1932	0.8573
1940	0.8509
1948	0.842
1956	0.834
1964	0.8346
1972	0.8455
1980	0.8603
1988	0.8666
1996	0.8703
2004	0.8724
2012	0.8733
2020	0.8734
2028	0.8737
2036	0.874
2044	0.874
2052	0.8741
2060	0.874
2068	0.874
2076	0.874
2084	0.8741
2092	0.874
2100	0.8738
2108	0.8737
2116	0.8741
2124	0.8745
2132	0.8767
2140	0.8795
2148	0.8808
2156	0.8796
2164	0.8793
2172	0.8791
2180	0.8792
2188	0.8794
2196	0.8796
2204	0.8802
2212	0.8808
2220	0.8819
2228	0.883
2236	0.8828
2244	0.882
2252	0.8808
2260	0.8804
2268	0.8804
2276	0.881
2284	0.8818
2292	0.8832
2300	0.8848
2308	0.8865
2316	0.8887
2324	0.8925
2332	0.8975
2340	0.9019
2348	0.9016
2356	0.9013
2364	0.9012
2372	0.9021
2380	0.9043
2388	0.9088
2396	0.9128
2404	0.9122
2412	0.908
2420	0.9003
2428	0.895
2436	0.891
2444	0.8891
2452	0.8876
2460	0.8863
2468	0.8856
2476	0.8849
2484	0.8842
2492	0.8837
2500	0.8838
2508	0.8841
2516	0.8843
2524	0.8847
2532	0.8851
2540	0.8855
2548	0.8857
2556	0.8856
2564	0.8856
2572	0.8855
2580	0.885
2588	0.8847
2596	0.8843
2604	0.8839
2612	0.8835
2620	0.8831
2628	0.8828
2636	0.8825
2644	0.8816
2652	0.8806
2660	0.8796
2668	0.8786
2676	0.8775
2684	0.876
2692	0.8745
2700	0.873
2708	0.8715
2716	0.87
2724	0.8684
2732	0.8669
2740	0.8652
2748	0.8634
2756	0.8614
2764	0.8589
2772	0.8553
2780	0.8513
2788	0.8456
2796	0.8395
2804	0.8318
2812	0.824
2820	0.8141
2828	0.8041
2836	0.7938
2844	0.7805
2852	0.7638
2860	0.7407
2868	0.7208
2876	0.7145
2884	0.714
2892	0.7159
2900	0.7342
2908	0.7641
2916	0.7846
2924	0.7966
2932	0.8043
2940	0.8109
2948	0.8157
2956	0.8189
2964	0.8214
2972	0.8217
2980	0.8203
2988	0.8175
2996	0.8095
3004	0.7957
3012	0.7779
3020	0.7712
3028	0.7715
3036	0.7741
3044	0.7781
3052	0.783
3060	0.7876
3068	0.7923
3076	0.7982
3084	0.8067
3092	0.8326
3100	0.8542
3108	0.8678
3116	0.8774
3124	0.8857
3132	0.8913
3140	0.8961
3148	0.8994
3156	0.9019
3164	0.9037
3172	0.9053
3180	0.9069
3188	0.9081
3196	0.9092
3204	0.9102
3212	0.9107
3220	0.9111
3228	0.9116
3236	0.9118
3244	0.9119
3252	0.9119
3260	0.9119
3268	0.9118
3276	0.9118
3284	0.9116
3292	0.9115
3300	0.9113
3308	0.911
3316	0.9105
3324	0.9102
3332	0.9097
3340	0.9094
3348	0.9088
3356	0.9081
3364	0.9074
3372	0.9067
3380	0.906
3388	0.9052
3396	0.9045
3404	0.9038
3412	0.9033
3420	0.9029
3428	0.9026
3436	0.9027
3444	0.9027
3452	0.9027
3460	0.9028
3468	0.9032
3476	0.9035
3484	0.9037
3492	0.904
3500	0.9042
3508	0.9039
3516	0.9035
3524	0.903
3532	0.9024
3540	0.9018
3548	0.9013
3556	0.9008
3564	0.9007
3572	0.9009
3580	0.9009
3588	0.9013
3596	0.902
3604	0.9028
3612	0.9036
3620	0.9043
3628	0.9051
3636	0.906
3644	0.9067
3652	0.9076
3660	0.9084
3668	0.9092
3676	0.9099
3684	0.9105
3692	0.9112
3700	0.9118
3708	0.9125
3716	0.913
3724	0.9131
3732	0.9133
3740	0.9133
3748	0.9132
3756	0.9129
3764	0.9127
3772	0.9124
3780	0.9122
3788	0.9118
3796	0.9115
3804	0.9112
3812	0.9109
3820	0.9105
3828	0.9102
3836	0.9099
3844	0.9095
3852	0.9091
3860	0.9088
3868	0.9083
3876	0.908
3884	0.9078
3892	0.9075
3900	0.9073
3908	0.9071
3916	0.9068
3924	0.9066
3932	0.9063
3940	0.9062
3948	0.9061
3956	0.906
3964	0.9059
3972	0.9059
3980	0.9058
3988	0.9057
3996	0.9057
