Infrared Spectrum: P-PHENYL AZO CARBANILIC ACID, LINALYL ESTER
Formula: C23 H27 N3 O2
CAS: 95439-22-8
State: SOLID (1.5 mg / 100 mg KBr)
Melting point: 129.5-131 C
Class: COBLENTZ
Instrument: Not specified, most likely a grating spectrometer.
Sampling: TRANSMISSION
Resolution: 4
Origin: CITRUS EXPERIMENT STATION, UNIVERSITY OF FLORIDA (G. EDWARDS)
MICROMETERS	TRANSMITTANCE
2.046	0.922
2.07916	0.925
2.11232	0.925
2.14548	0.925
2.17865	0.926
2.21181	0.929
2.24497	0.933
2.27813	0.936
2.31129	0.937
2.34445	0.938
2.37762	0.942
2.41078	0.944
2.44394	0.946
2.4771	0.952
2.51026	0.952
2.54342	0.954
2.57658	0.956
2.60975	0.96
2.64291	0.968
2.67607	0.968
2.70923	0.966
2.74239	0.962
2.77555	0.962
2.80872	0.965
2.84188	0.964
2.87504	0.961
2.9082	0.96
2.94136	0.948
2.97452	0.861
3.00769	0.66
3.04085	0.757
3.07401	0.909
3.10717	0.937
3.14033	0.95
3.17349	0.96
3.20665	0.948
3.23982	0.933
3.27298	0.921
3.30614	0.929
3.3393	0.876
3.37246	0.85
3.40562	0.825
3.43879	0.881
3.47195	0.9
3.50511	0.938
3.53827	0.973
3.57143	0.977
3.60459	0.98
3.63775	0.982
3.67092	0.993
3.70408	0.996
3.73724	0.997
3.7704	0.997
3.80356	0.998
3.83672	0.997
3.86989	0.997
3.90305	1
3.93621	1.002
3.96937	1.002
4.00253	1.001
4.03569	1.001
4.06885	1.004
4.10202	1.005
4.13518	1.006
4.16834	1.006
4.2015	1.004
4.23466	1
4.26782	0.998
4.30099	0.998
4.33415	1.002
4.36731	1.006
4.40047	1.008
4.43363	1.009
4.46679	1.008
4.49996	1.008
4.53312	1.009
4.56628	1.01
4.59944	1.013
4.6326	1.013
4.66576	1.013
4.69892	1.013
4.73209	1.016
4.76525	1.017
4.79841	1.018
4.83157	1.02
4.86473	1.018
4.89789	1.014
4.93106	1.012
4.96422	1.01
4.99738	1.009
5.03054	1.009
5.0637	1.009
5.09686	1.01
5.13002	1.012
5.16319	1.013
5.19635	1.005
5.22951	1.002
5.26267	1.004
5.29583	1.006
5.32899	1.012
5.36216	1.014
5.39532	1.014
5.42848	1.009
5.46164	1.008
5.4948	1.006
5.52796	1.004
5.56112	1.004
5.59429	1.004
5.62745	1.001
5.66061	0.998
5.69377	0.981
5.72693	0.932
5.76009	0.833
5.79326	0.717
5.82642	0.622
5.85958	0.517
5.89274	0.648
5.9259	0.861
5.95906	0.922
5.99222	0.946
6.02539	0.973
6.05855	0.96
6.09171	0.958
6.12487	0.965
6.15803	0.93
6.19119	0.821
6.22436	0.549
6.25752	0.605
6.29068	0.802
6.32384	0.922
6.357	0.917
6.39016	0.792
6.42333	0.637
6.45649	0.412
6.48965	0.368
6.52281	0.573
6.55597	0.76
6.58913	0.789
6.62229	0.793
6.65546	0.83
6.68862	0.896
6.72178	0.92
6.75494	0.922
6.7881	0.894
6.82126	0.833
6.85443	0.857
6.88759	0.846
6.92075	0.776
6.95391	0.845
6.98707	0.913
7.02023	0.898
7.05339	0.774
7.08656	0.653
7.11972	0.846
7.15288	0.918
7.18604	0.925
7.2192	0.876
7.25236	0.817
7.28553	0.852
7.31869	0.916
7.35185	0.937
7.38501	0.937
7.41817	0.925
7.45133	0.884
7.48449	0.833
7.51766	0.745
7.55082	0.729
7.58398	0.726
7.61714	0.724
7.6503	0.658
7.68346	0.65
7.71663	0.824
7.74979	0.932
7.78295	0.924
7.81611	0.9
7.84927	0.841
7.88243	0.772
7.9156	0.737
7.94876	0.734
7.98192	0.662
8.01508	0.542
8.04824	0.425
8.0814	0.432
8.11456	0.476
8.14773	0.564
8.18089	0.665
8.21405	0.73
8.24721	0.749
8.28037	0.761
8.31353	0.798
8.3467	0.837
8.37986	0.854
8.41302	0.821
8.44618	0.788
8.47934	0.748
8.5125	0.717
8.54566	0.705
8.57883	0.702
8.61199	0.648
8.64515	0.565
8.67831	0.582
8.71147	0.684
8.74463	0.67
8.7778	0.752
8.81096	0.822
8.84412	0.81
8.87728	0.784
8.91044	0.805
8.9436	0.796
8.97676	0.762
9.00993	0.76
9.04309	0.809
9.07625	0.841
9.10941	0.824
9.14257	0.789
9.17573	0.741
9.2089	0.737
9.24206	0.784
9.27522	0.838
9.30838	0.868
9.34154	0.869
9.3747	0.869
9.40787	0.838
9.44103	0.766
9.47419	0.704
9.50735	0.685
9.54051	0.71
9.57367	0.729
9.60683	0.752
9.64	0.798
9.67316	0.85
9.70632	0.874
9.73948	0.897
9.77264	0.892
9.8058	0.87
9.83897	0.892
9.87213	0.901
9.90529	0.898
9.93845	0.916
9.97161	0.925
10.0048	0.916
10.0379	0.926
10.0711	0.928
10.1043	0.917
10.1374	0.91
10.1706	0.913
10.2037	0.921
10.2369	0.944
10.2701	0.962
10.3032	0.965
10.3364	0.966
10.3696	0.969
10.4027	0.972
10.4359	0.972
10.469	0.97
10.5022	0.968
10.5354	0.966
10.5685	0.966
10.6017	0.972
10.6348	0.972
10.668	0.968
10.7012	0.956
10.7343	0.926
10.7675	0.889
10.8007	0.858
10.8338	0.838
10.867	0.821
10.9001	0.829
10.9333	0.844
10.9665	0.872
10.9996	0.894
11.0328	0.906
11.0659	0.922
11.0991	0.938
11.1323	0.956
11.1654	0.96
11.1986	0.962
11.2318	0.968
11.2649	0.968
11.2981	0.97
11.3312	0.976
11.3644	0.978
11.3976	0.978
11.4307	0.976
11.4639	0.973
11.497	0.97
11.5302	0.962
11.5634	0.94
11.5965	0.926
11.6297	0.92
11.6629	0.893
11.696	0.848
11.7292	0.768
11.7623	0.689
11.7955	0.677
11.8287	0.709
11.8618	0.769
11.895	0.82
11.9281	0.864
11.9613	0.892
11.9945	0.908
12.0276	0.917
12.0608	0.921
12.094	0.925
12.1271	0.929
12.1603	0.94
12.1934	0.949
12.2266	0.953
12.2598	0.965
12.2929	0.968
12.3261	0.969
12.3592	0.97
12.3924	0.97
12.4256	0.97
12.4587	0.969
12.4919	0.966
12.5251	0.965
12.5582	0.964
12.5914	0.964
12.6245	0.964
12.6577	0.96
12.6909	0.949
12.724	0.937
12.7572	0.93
12.7903	0.924
12.8235	0.909
12.8567	0.894
12.8898	0.884
12.923	0.854
12.9562	0.82
12.9893	0.792
13.0225	0.757
13.0556	0.73
13.0888	0.736
13.122	0.797
13.1551	0.853
13.1883	0.896
13.2214	0.912
13.2546	0.921
13.2878	0.925
13.3209	0.929
13.3541	0.93
13.3873	0.933
13.4204	0.933
13.4536	0.933
13.4867	0.933
13.5199	0.93
13.5531	0.928
13.5862	0.926
13.6194	0.921
13.6525	0.921
13.6857	0.922
13.7189	0.924
13.752	0.924
13.7852	0.922
13.8184	0.902
13.8515	0.874
13.8847	0.854
13.9178	0.874
13.951	0.89
13.9842	0.894
14.0173	0.892
14.0505	0.89
14.0836	0.89
14.1168	0.885
14.15	0.878
14.1831	0.872
14.2163	0.868
14.2495	0.866
14.2826	0.862
14.3158	0.856
14.3489	0.84
14.3821	0.829
14.4153	0.816
14.4484	0.792
14.4816	0.749
14.5147	0.701
14.5479	0.658
14.5811	0.662
14.6142	0.702
14.6474	0.741
14.6806	0.774
14.7137	0.806
14.7469	0.817
14.78	0.833
14.8132	0.834
14.8464	0.83
14.8795	0.821
14.9127	0.801
14.9458	0.782
14.979	0.85
15.0122	0.878
