Infrared Spectrum: 17Beta-ACETYLAMINO-16Alpha-METHYL-5-ANDROSTEN-3Beta-OL
Formula: C22 H35 N O2
CAS: 95461-92-0
State: SOLID (0.02 MOLAR IN KBr DISC)
Class: COBLENTZ III
Instrument: PERKIN-ELMER 21 (GRATING)
Instrument parameters: FILTER AT ABOUT 10 MICRONS
Resolution: 2
Origin: ABBOTT LABORATORIES
1/CM	TRANSMITTANCE
670	0.546
679	0.5479
688	0.5505
697	0.533
706	0.5521
715	0.5625
724	0.555
733	0.5033
742	0.5715
751	0.5855
760	0.6048
769	0.6036
778	0.6265
787	0.6237
796	0.519
805	0.4686
814	0.624
823	0.6353
832	0.5411
841	0.635
850	0.6133
859	0.6339
868	0.691
877	0.6426
886	0.6833
895	0.6277
904	0.6484
913	0.6743
922	0.6496
931	0.6114
940	0.5339
949	0.5704
958	0.441
967	0.4796
976	0.5877
985	0.5763
994	0.5213
1003	0.4667
1012	0.414
1021	0.5068
1030	0.4098
1039	0.2975
1048	0.2102
1057	0.2454
1066	0.2998
1075	0.458
1084	0.516
1093	0.4081
1102	0.486
1111	0.5816
1120	0.554
1129	0.5025
1138	0.5236
1147	0.5513
1156	0.5922
1165	0.5847
1174	0.601
1183	0.552
1192	0.5336
1201	0.5824
1210	0.5689
1219	0.5356
1228	0.5475
1237	0.4932
1246	0.4869
1255	0.4951
1264	0.4212
1273	0.3589
1282	0.3492
1291	0.3467
1300	0.3766
1309	0.4206
1318	0.4302
1327	0.4201
1336	0.3884
1345	0.3524
1354	0.2945
1363	0.2036
1372	0.1515
1381	0.288
1390	0.4009
1399	0.4157
1408	0.3969
1417	0.3338
1426	0.238
1435	0.2337
1444	0.2102
1453	0.2395
1462	0.2683
1471	0.4266
1480	0.464
1489	0.3953
1498	0.3151
1507	0.2314
1516	0.1817
1525	0.1458
1534	0.1297
1543	0.1292
1552	0.1948
1561	0.2838
1570	0.3717
1579	0.4587
1588	0.4775
1597	0.4197
1606	0.3368
1615	0.2548
1624	0.1829
1633	0.1183
1642	0.0691
1651	0.0529
1660	0.0782
1669	0.1706
1678	0.2626
1687	0.3636
1696	0.5326
1705	0.5902
1714	0.6297
1723	0.6556
1732	0.6719
1741	0.6855
1750	0.6983
1759	0.7058
1768	0.7107
1777	0.7211
1786	0.7327
1795	0.7401
1804	0.7444
1813	0.7478
1822	0.7506
1831	0.7535
1840	0.7564
1849	0.7593
1858	0.7608
1867	0.7614
1876	0.7643
1885	0.7668
1894	0.7687
1903	0.7703
1912	0.7711
1921	0.772
1930	0.7725
1939	0.7728
1948	0.7731
1957	0.7734
1966	0.7737
1975	0.7739
1984	0.7741
1993	0.7743
2002	0.7746
2011	0.7748
2020	0.7747
2029	0.7745
2038	0.7744
2047	0.7742
2056	0.7741
2065	0.7739
2074	0.7737
2083	0.7736
2092	0.7734
2101	0.7731
2110	0.7728
2119	0.7724
2128	0.7721
2137	0.7718
2146	0.7715
2155	0.7712
2164	0.7709
2173	0.7706
2182	0.7704
2191	0.7703
2200	0.7701
2209	0.7699
2218	0.7697
2227	0.7695
2236	0.7679
2245	0.7663
2254	0.7647
2263	0.763
2272	0.7606
2281	0.7582
2290	0.7563
2299	0.7558
2308	0.7554
2317	0.7558
2326	0.7561
2335	0.7562
2344	0.7563
2353	0.7564
2362	0.7564
2371	0.7563
2380	0.7561
2389	0.7558
2398	0.7552
2407	0.7546
2416	0.754
2425	0.7527
2434	0.7511
2443	0.7496
2452	0.7481
2461	0.7465
2470	0.7447
2479	0.7429
2488	0.7411
2497	0.7373
2506	0.7335
2515	0.7297
2524	0.7259
2533	0.7218
2542	0.7178
2551	0.7138
2560	0.7098
2569	0.7053
2578	0.7003
2587	0.6952
2596	0.6906
2605	0.6866
2614	0.6849
2623	0.6839
2632	0.6832
2641	0.6826
2650	0.6818
2659	0.6803
2668	0.6785
2677	0.6753
2686	0.6715
2695	0.6662
2704	0.6593
2713	0.652
2722	0.6406
2731	0.6277
2740	0.6138
2749	0.5983
2758	0.5803
2767	0.5576
2776	0.4985
2785	0.4219
2794	0.3457
2803	0.2701
2812	0.2124
2821	0.179
2830	0.1598
2839	0.1466
2848	0.132
2857	0.1161
2866	0.1053
2875	0.0956
2884	0.0868
2893	0.081
2902	0.0782
2911	0.0786
2920	0.0799
2929	0.0832
2938	0.0936
2947	0.1195
2956	0.1902
2965	0.2927
2974	0.3947
2983	0.486
2992	0.5059
3001	0.5148
3010	0.5168
3019	0.5187
3028	0.5172
3037	0.5136
3046	0.5076
3055	0.5059
3064	0.5087
3073	0.5147
3082	0.5195
3091	0.5195
3100	0.5181
3109	0.5005
3118	0.4809
3127	0.4616
3136	0.4423
3145	0.4231
3154	0.4041
3163	0.3851
3172	0.3663
3181	0.3475
3190	0.3289
3199	0.3103
3208	0.2919
3217	0.2736
3226	0.2554
3235	0.2373
3244	0.2192
3253	0.2021
3262	0.1839
3271	0.1762
3280	0.1744
3289	0.174
3298	0.1744
3307	0.1751
3316	0.1764
3325	0.1781
3334	0.1825
3343	0.1886
3352	0.1957
3361	0.2037
3370	0.212
3379	0.2208
3388	0.2307
3397	0.2428
3406	0.2539
3415	0.2652
3424	0.2861
3433	0.3085
3442	0.3309
3451	0.3531
3460	0.3753
3469	0.3973
3478	0.4192
3487	0.441
3496	0.4626
3505	0.4842
3514	0.503
3523	0.52
3532	0.5438
3541	0.568
3550	0.5887
3559	0.6038
3568	0.6173
3577	0.6285
3586	0.6398
3595	0.6514
3604	0.6632
3613	0.6726
3622	0.6797
3631	0.6874
3640	0.6965
3649	0.7033
3658	0.7087
3667	0.7139
3676	0.7173
3685	0.7206
3694	0.7231
3703	0.7249
3712	0.7263
3721	0.7267
3730	0.7269
3739	0.7271
3748	0.7272
3757	0.7273
3766	0.7275
3775	0.7276
3784	0.7278
3793	0.7279
3802	0.728
3811	0.728
3820	0.728
3829	0.728
3838	0.728
3847	0.728
3856	0.7279
3865	0.7278
3874	0.7278
3883	0.7277
3892	0.7277
3901	0.7275
3910	0.727
3919	0.7264
3928	0.7259
3937	0.7254
3946	0.7249
3955	0.7243
3964	0.7238
3973	0.7232
3982	0.7228
3991	0.7222
4000	0.7219
