Infrared Spectrum: 2,5-Diphenylfuran
Formula: C 16 H 12 O
CAS: 955-83-9
State: gas
Origin: EPA-IR VAPOR PHASE LIBRARY
1/CM	ABSORBANCE
501.5	0.00159
513.074	0.00197
524.648	0.00148
536.222	0.00132
547.796	0.00108
559.37	0.0009114
570.944	0.0007033
582.518	0.0005305
594.092	0.0004156
605.666	0.0004541
617.24	0.0007633
628.814	0.00113
640.388	0.00211
651.962	0.00451
663.536	0.01225
675.11	0.02484
686.684	0.0341
698.258	0.02625
709.832	0.00978
721.406	0.00855
732.98	0.00937
744.554	0.03148
756.128	0.07614
767.702	0.03174
779.276	0.01653
790.85	0.01134
802.423	0.00272
813.997	0.00144
825.571	0.00115
837.145	0.00166
848.719	0.00115
860.293	0.0019
871.867	0.00261
883.441	0.00206
895.015	0.00292
906.589	0.00398
918.163	0.00509
929.737	0.00776
941.311	0.00324
952.885	0.00188
964.459	0.00201
976.033	0.00201
987.607	0.00257
999.181	0.00423
1010.76	0.01172
1022.33	0.02987
1033.9	0.01293
1045.48	0.00326
1057.05	0.00517
1068.63	0.00826
1080.2	0.00489
1091.77	0.00313
1103.35	0.00231
1114.92	0.0009224
1126.49	0.000606
1138.07	0.0004129
1149.64	0.0006299
1161.22	0.0007859
1172.79	0.00163
1184.36	0.00229
1195.94	0.00374
1207.51	0.01005
1219.09	0.00307
1230.66	0.00187
1242.23	0.0012
1253.81	0.00126
1265.38	0.00189
1276.96	0.00278
1288.53	0.00257
1300.1	0.00201
1311.68	0.00204
1323.25	0.00234
1334.83	0.00149
1346.4	0.000985
1357.97	0.00106
1369.55	0.00114
1381.12	0.00104
1392.7	0.0009952
1404.27	0.00113
1415.84	0.00147
1427.42	0.00198
1438.99	0.00501
1450.57	0.00728
1462.14	0.00732
1473.71	0.01643
1485.29	0.03283
1496.86	0.02442
1508.44	0.00472
1520.01	0.00321
1531.58	0.00377
1543.16	0.00509
1554.73	0.00467
1566.31	0.00522
1577.88	0.00713
1589.45	0.01256
1601.03	0.01131
1612.6	0.01694
1624.18	0.00617
1635.75	0.00168
1647.32	0.00166
1658.9	0.00345
1670.47	0.00489
1682.05	0.00356
1693.62	0.00144
1705.19	0.0009206
1716.77	0.00124
1728.34	0.00199
1739.92	0.00207
1751.49	0.00123
1763.06	0.0009864
1774.64	0.00136
1786.21	0.00226
1797.79	0.00244
1809.36	0.00224
1820.93	0.0013
1832.51	0.0007564
1844.08	0.0008722
1855.66	0.00141
1867.23	0.0023
1878.8	0.00282
1890.38	0.00191
1901.95	0.0008772
1913.53	0.001
1925.1	0.00181
1936.67	0.00318
1948.25	0.0031
1959.82	0.00243
1971.4	0.0008747
1982.97	0.0005698
1994.54	0.0004367
2006.12	0.0004278
2017.69	0.0003645
2029.27	0.0004006
2040.84	0.000512
2052.41	0.0004768
2063.99	0.0004083
2075.56	0.0004897
2087.14	0.0005797
2098.71	0.0004609
2110.28	0.0004274
2121.86	0.0004331
2133.43	0.0003688
2145.01	0.0003223
2156.58	0.0002995
2168.15	0.0003147
2179.73	0.0003124
2191.3	0.0003376
2202.88	0.0003647
2214.45	0.0003484
2226.02	0.0003441
2237.6	0.0004309
2249.17	0.0005155
2260.74	0.0005521
2272.32	0.0006707
2283.89	0.0007355
2295.47	0.0007687
2307.04	0.0009836
2318.61	0.00111
2330.19	0.00107
2341.76	0.00128
2353.34	0.0009641
2364.91	0.000779
2376.48	0.0006275
2388.06	0.0006134
2399.63	0.000681
2411.21	0.0007447
2422.78	0.0006954
2434.35	0.0005453
2445.93	0.0004587
2457.5	0.0005032
2469.08	0.0004909
2480.65	0.0004892
2492.22	0.0004743
2503.8	0.0005495
2515.37	0.0006114
2526.95	0.0006503
2538.52	0.0008254
2550.09	0.0008624
2561.67	0.0007607
2573.24	0.0007405
2584.82	0.0007871
2596.39	0.0008737
2607.96	0.0008792
2619.54	0.0007542
2631.11	0.0006589
2642.69	0.0005547
2654.26	0.0005295
2665.83	0.00053
2677.41	0.0005501
2688.98	0.0005527
2700.56	0.0004953
2712.13	0.0005279
2723.7	0.0007021
2735.28	0.0007369
2746.85	0.0009298
2758.43	0.00105
2770	0.0008684
2781.57	0.0006893
2793.15	0.0007672
2804.72	0.001
2816.3	0.00128
2827.87	0.00123
2839.44	0.0008574
2851.02	0.0008755
2862.59	0.0009784
2874.17	0.0009675
2885.74	0.001
2897.31	0.0008868
2908.89	0.0007955
2920.46	0.0007872
2932.04	0.000823
2943.61	0.0008368
2955.18	0.00103
2966.76	0.0012
2978.33	0.00123
2989.91	0.00163
3001.48	0.00261
3013.05	0.0046
3024.63	0.00817
3036.2	0.01395
3047.78	0.01634
3059.35	0.01885
3070.92	0.03812
3082.5	0.02397
3094.07	0.01482
3105.65	0.00869
3117.22	0.00779
3128.79	0.00652
3140.37	0.00303
3151.94	0.0016
3163.52	0.00103
3175.09	0.0007501
3186.66	0.0006194
3198.24	0.0005547
3209.81	0.00059
3221.39	0.0005112
3232.96	0.0004122
3244.53	0.000351
3256.11	0.0004271
3267.68	0.00038
3279.26	0.0003295
3290.83	0.0004316
3302.4	0.0003854
3313.98	0.0004129
3325.55	0.0004431
3337.13	0.0003879
3348.7	0.0004232
3360.27	0.000362
3371.85	0.0003889
3383.42	0.0003904
3395	0.0003699
3406.57	0.0003754
3418.14	0.0004741
3429.72	0.0004539
3441.29	0.0004122
3452.86	0.0004905
3464.44	0.0005133
3476.01	0.000461
3487.59	0.0004884
3499.16	0.0004876
3510.73	0.0004501
3522.31	0.0004238
3533.88	0.0004141
3545.46	0.0004235
3557.03	0.0003623
3568.6	0.0004255
3580.18	0.0004367
3591.75	0.000403
3603.33	0.0004815
3614.9	0.0004793
3626.47	0.0004017
3638.05	0.000597
3649.62	0.0005961
3661.2	0.0006312
3672.77	0.0005982
3684.34	0.0006719
3695.92	0.000656
3707.49	0.0006118
3719.07	0.0006145
3730.64	0.0006031
3742.21	0.0007432
3753.79	0.0006637
3765.36	0.0006909
3776.94	0.0005485
3788.51	0.0005494
3800.08	0.000484
3811.66	0.0006281
3823.23	0.0005665
3834.81	0.0004598
3846.38	0.0004934
3857.95	0.0005446
3869.53	0.0004733
3881.1	0.0004649
3892.68	0.0005047
3904.25	0.0004938
3915.82	0.0005565
3927.4	0.0005296
3938.97	0.0004949
3950.55	0.0005271
3962.12	0.0006722
3973.69	0.0006723
3985.27	0.0007131
3996.84	0.0007428
