Infrared Spectrum: 2-DIMETHYLAMINO-METHYLENE-3-ISOPROPYLIDENE SUCCINIC ACID, DIMETHYL ESTER
Formula: C12 H19 N O4
CAS: 95533-81-6
State: SOLID (PELLET)
Class: COBLENTZ
Instrument: Not specified, most likely a prism, grating, or hybrid spectrometer.
Sampling: TRANSMISSION
Resolution: 4
Origin: TENNESSEE EASTMAN COMPANY, RESEARCH LABORATORIES
MICROMETERS	TRANSMITTANCE
2.013	0.52
2.05286	0.52
2.09271	0.52
2.13257	0.527
2.17243	0.532
2.21229	0.537
2.25214	0.539
2.292	0.55
2.33186	0.56
2.37171	0.572
2.41157	0.585
2.45143	0.594
2.49129	0.602
2.53114	0.612
2.571	0.612
2.61086	0.613
2.65071	0.623
2.69057	0.627
2.73043	0.628
2.77028	0.618
2.81014	0.599
2.85	0.574
2.88986	0.559
2.92971	0.552
2.96957	0.559
3.00943	0.612
3.04928	0.643
3.08914	0.663
3.129	0.687
3.16886	0.698
3.20871	0.705
3.24857	0.703
3.28843	0.685
3.32828	0.502
3.36814	0.386
3.408	0.337
3.44786	0.449
3.48771	0.559
3.52757	0.628
3.56743	0.695
3.60728	0.788
3.64714	0.813
3.687	0.816
3.72686	0.821
3.76671	0.823
3.80657	0.826
3.84643	0.835
3.88628	0.843
3.92614	0.846
3.966	0.851
4.00586	0.856
4.04571	0.856
4.08557	0.858
4.12543	0.86
4.16528	0.86
4.20514	0.866
4.245	0.848
4.28485	0.806
4.32471	0.798
4.36457	0.845
4.40443	0.88
4.44428	0.883
4.48414	0.886
4.524	0.888
4.56385	0.891
4.60371	0.891
4.64357	0.891
4.68343	0.891
4.72328	0.893
4.76314	0.895
4.803	0.895
4.84285	0.891
4.88271	0.893
4.92257	0.893
4.96243	0.891
5.00228	0.895
5.04214	0.9
5.082	0.9
5.12185	0.9
5.16171	0.9
5.20157	0.898
5.24143	0.9
5.28128	0.903
5.32114	0.905
5.361	0.903
5.40085	0.903
5.44071	0.893
5.48057	0.878
5.52042	0.875
5.56028	0.866
5.60014	0.833
5.64	0.795
5.67985	0.753
5.71971	0.692
5.75957	0.575
5.79942	0.322
5.83928	0.086
5.87914	0.141
5.919	0.096
5.95885	0.096
5.99871	0.332
6.03857	0.454
6.07842	0.462
6.11828	0.371
6.15814	0.119
6.198	0.113
6.23785	0.074
6.27771	0.063
6.31757	0.083
6.35742	0.304
6.39728	0.457
6.43714	0.607
6.477	0.625
6.51685	0.648
6.55671	0.707
6.59657	0.742
6.63642	0.752
6.67628	0.715
6.71614	0.668
6.756	0.68
6.79585	0.597
6.83571	0.462
6.87557	0.317
6.91542	0.193
6.95528	0.099
6.99514	0.094
7.03499	0.284
7.07485	0.55
7.11471	0.384
7.15457	0.337
7.19442	0.439
7.23428	0.319
7.27414	0.415
7.31399	0.485
7.35385	0.678
7.39371	0.743
7.43357	0.758
7.47342	0.757
7.51328	0.747
7.55314	0.728
7.59299	0.697
7.63285	0.638
7.67271	0.544
7.71257	0.415
7.75242	0.249
7.79228	0.109
7.83214	0.074
7.87199	0.073
7.91185	0.158
7.95171	0.201
7.99157	0.091
8.03142	0.171
8.07128	0.204
8.11114	0.106
8.15099	0.078
8.19085	0.066
8.23071	0.059
8.27057	0.058
8.31042	0.059
8.35028	0.166
8.39014	0.216
8.42999	0.206
8.46985	0.397
8.50971	0.525
8.54956	0.59
8.58942	0.613
8.62928	0.602
8.66914	0.54
8.70899	0.585
8.74885	0.623
8.78871	0.628
8.82856	0.62
8.86842	0.575
8.90828	0.509
8.94814	0.374
8.98799	0.224
9.02785	0.131
9.06771	0.096
9.10756	0.083
9.14742	0.073
9.18728	0.068
9.22714	0.064
9.26699	0.063
9.30685	0.094
9.34671	0.191
9.38656	0.227
9.42642	0.301
9.46628	0.44
9.50614	0.537
9.54599	0.589
9.58585	0.602
9.62571	0.545
9.66556	0.369
9.70542	0.359
9.74528	0.559
9.78513	0.697
9.82499	0.763
9.86485	0.787
9.90471	0.805
9.94456	0.825
9.98442	0.828
10.0243	0.833
10.0641	0.835
10.104	0.816
10.1438	0.803
10.1837	0.823
10.2236	0.828
10.2634	0.821
10.3033	0.772
10.3431	0.57
10.383	0.272
10.4228	0.244
10.4627	0.537
10.5026	0.682
10.5424	0.743
10.5823	0.752
10.6221	0.632
10.662	0.5
10.7018	0.69
10.7417	0.833
10.7816	0.885
10.8214	0.905
10.8613	0.916
10.9011	0.928
10.941	0.933
10.9808	0.931
11.0207	0.935
11.0606	0.941
11.1004	0.941
11.1403	0.941
11.1801	0.941
11.22	0.94
11.2598	0.908
11.2997	0.858
11.3396	0.758
11.3794	0.682
11.4193	0.708
11.4591	0.801
11.499	0.855
11.5388	0.888
11.5787	0.9
11.6186	0.91
11.6584	0.915
11.6983	0.911
11.7381	0.886
11.778	0.82
11.8178	0.693
11.8577	0.648
11.8976	0.775
11.9374	0.855
11.9773	0.9
12.0171	0.92
12.057	0.928
12.0968	0.931
12.1367	0.935
12.1766	0.933
12.2164	0.93
12.2563	0.91
12.2961	0.876
12.336	0.758
12.3758	0.49
12.4157	0.367
12.4556	0.622
12.4954	0.728
12.5353	0.579
12.5751	0.351
12.615	0.57
12.6548	0.795
12.6947	0.853
12.7346	0.885
12.7744	0.893
12.8143	0.896
12.8541	0.885
12.894	0.838
12.9338	0.722
12.9737	0.502
13.0136	0.412
13.0534	0.597
13.0933	0.772
13.1331	0.855
13.173	0.886
13.2128	0.891
13.2527	0.885
13.2926	0.808
13.3324	0.683
13.3723	0.713
13.4121	0.833
13.452	0.886
13.4918	0.901
13.5317	0.913
13.5716	0.92
13.6114	0.925
13.6513	0.925
13.6911	0.925
13.731	0.925
13.7708	0.926
13.8107	0.926
13.8506	0.923
13.8904	0.925
13.9303	0.923
13.9701	0.923
14.01	0.925
14.0498	0.923
14.0897	0.92
14.1296	0.911
14.1694	0.906
14.2093	0.901
14.2491	0.901
14.289	0.89
14.3288	0.885
14.3687	0.873
14.4086	0.863
14.4484	0.85
14.4883	0.838
14.5281	0.826
14.568	0.816
14.6078	0.801
14.6477	0.788
14.6876	0.775
14.7274	0.762
14.7673	0.75
14.8071	0.737
14.847	0.727
14.8868	0.707
14.9267	0.672
14.9666	0.607
15.0064	0.574
15.0463	0.56
15.0861	0.55
15.126	0.529
15.1658	0.505
15.2057	0.499
15.2456	0.499
15.2854	0.502
15.3253	0.507
15.3651	0.509
15.405	0.499
15.4448	0.49
15.4847	0.485
15.5246	0.479
15.5644	0.472
15.6043	0.46
15.6441	0.45
15.684	0.44
15.7238	0.429
15.7637	0.415
15.8036	0.405
15.8434	0.399
15.8833	0.389
15.9231	0.384
15.963	0.381
