Infrared Spectrum: N-METHYL-o-BROMOBENZYLIDINIMINE
Formula: C8 H8 Br N
CAS: 95547-10-7
Class: COBLENTZ
Instrument: PERKIN-ELMER
Sampling: TRANSMISSION
Path length: CAPILLARY
Resolution: 4
Origin: ABBOTT LABORATORIES - WASHBURN
MICROMETERS	TRANSMITTANCE
2.54	0.851
2.57307	0.855
2.60614	0.858
2.63921	0.858
2.67228	0.861
2.70535	0.8611
2.73842	0.861
2.77149	0.861
2.80456	0.8548
2.83763	0.8449
2.8707	0.835
2.90377	0.833
2.93684	0.83
2.96991	0.826
3.00298	0.828
3.03605	0.823
3.06912	0.8161
3.10219	0.831
3.13526	0.828
3.16833	0.8229
3.2014	0.8107
3.23447	0.7472
3.26754	0.72
3.30061	0.7521
3.33368	0.7516
3.36675	0.5613
3.39982	0.5433
3.43289	0.5361
3.46596	0.4548
3.49903	0.5869
3.5321	0.6985
3.56517	0.79
3.59824	0.708
3.63131	0.7823
3.66438	0.8311
3.69745	0.8431
3.73052	0.8513
3.76359	0.8581
3.79666	0.8609
3.82973	0.856
3.8628	0.8548
3.89587	0.8538
3.92894	0.856
3.96201	0.8609
3.99508	0.868
4.02815	0.865
4.06122	0.866
4.09429	0.8661
4.12736	0.8681
4.16043	0.875
4.1935	0.871
4.22657	0.8729
4.25964	0.873
4.29271	0.871
4.32578	0.8712
4.35885	0.875
4.39192	0.873
4.42499	0.871
4.45806	0.873
4.49113	0.871
4.5242	0.8711
4.55727	0.875
4.59034	0.8779
4.62341	0.8761
4.65648	0.871
4.68955	0.8649
4.72262	0.8612
4.75569	0.8701
4.78876	0.875
4.82183	0.875
4.8549	0.8751
4.88797	0.8759
4.92104	0.875
4.95411	0.871
4.98718	0.851
5.02025	0.863
5.05332	0.8512
5.08639	0.8451
5.11946	0.8452
5.15253	0.8425
5.1856	0.846
5.21867	0.8473
5.25174	0.861
5.28481	0.8625
5.31788	0.848
5.35095	0.855
5.38402	0.8474
5.41709	0.85
5.45016	0.841
5.48323	0.8515
5.5163	0.858
5.54937	0.87
5.58244	0.87
5.61551	0.8697
5.64858	0.8702
5.68165	0.8603
5.71472	0.853
5.74779	0.84
5.78086	0.8319
5.81393	0.8155
5.847	0.7962
5.88007	0.8017
5.91314	0.7994
5.94621	0.7767
5.97928	0.7392
6.01235	0.6543
6.04542	0.4077
6.07849	0.1755
6.11156	0.5101
6.14463	0.679
6.1777	0.7295
6.21077	0.7541
6.24384	0.645
6.27691	0.5171
6.30998	0.7275
6.34305	0.7066
6.37612	0.5404
6.40919	0.7699
6.44226	0.8035
6.47533	0.8134
6.5084	0.8183
6.54147	0.8159
6.57454	0.81
6.60761	0.8011
6.64068	0.8
6.67375	0.797
6.70682	0.7935
6.73989	0.7752
6.77296	0.6614
6.80603	0.3795
6.8391	0.4391
6.87217	0.417
6.90524	0.482
6.93831	0.3038
6.97138	0.2991
7.00445	0.3744
7.03752	0.5922
7.07059	0.6781
7.10366	0.6277
7.13673	0.5377
7.1698	0.6683
7.20287	0.7178
7.23594	0.733
7.26901	0.69
7.30208	0.4908
7.33515	0.4361
7.36822	0.6925
7.40129	0.778
7.43436	0.798
7.46743	0.8082
7.5005	0.815
7.53357	0.818
7.56664	0.8181
7.59971	0.823
7.63278	0.8214
7.66585	0.8165
7.69892	0.8103
7.73199	0.7914
7.76506	0.7285
7.79813	0.5622
7.8312	0.4837
7.86427	0.44
7.89734	0.6313
7.93041	0.7353
7.96348	0.7775
7.99655	0.8032
8.02962	0.8162
8.06269	0.8279
8.09576	0.831
8.12883	0.831
8.1619	0.8215
8.19497	0.7809
8.22804	0.6786
8.26111	0.5757
8.29418	0.7408
8.32725	0.7936
8.36032	0.8168
8.39339	0.8266
8.42646	0.828
8.45953	0.8296
8.4926	0.8256
8.52567	0.8199
8.55874	0.808
8.59181	0.749
8.62488	0.708
8.65795	0.7487
8.69102	0.7947
8.72409	0.8057
8.75716	0.811
8.79024	0.81
8.82331	0.7995
8.85638	0.7517
8.88945	0.7393
8.92252	0.7191
8.95559	0.6372
8.98866	0.7225
9.02173	0.7603
9.0548	0.7731
9.08787	0.7999
9.12094	0.8057
9.15401	0.811
9.18708	0.813
9.22015	0.815
9.25322	0.81
9.28629	0.8004
9.31936	0.7959
9.35243	0.798
9.3855	0.7926
9.41857	0.793
9.45164	0.7865
9.48471	0.7406
9.51778	0.6869
9.55085	0.5548
9.58392	0.547
9.61699	0.5192
9.65006	0.5088
9.68313	0.5553
9.7162	0.5455
9.74927	0.3795
9.78234	0.279
9.81541	0.4662
9.84848	0.626
9.88155	0.6237
9.91462	0.5469
9.94769	0.3493
9.98076	0.3048
10.0138	0.5218
10.0469	0.6744
10.08	0.7223
10.113	0.75
10.1461	0.767
10.1792	0.7776
10.2122	0.7924
10.2453	0.7995
10.2784	0.8003
10.3115	0.7808
10.3445	0.7256
10.3776	0.6391
10.4107	0.5655
10.4437	0.5407
10.4768	0.6705
10.5099	0.7522
10.5429	0.7903
10.576	0.7728
10.6091	0.698
10.6422	0.6831
10.6752	0.7092
10.7083	0.7662
10.7414	0.8068
10.7744	0.8295
10.8075	0.8423
10.8406	0.8522
10.8736	0.857
10.9067	0.86
10.9398	0.861
10.9729	0.8624
11.0059	0.86
11.039	0.858
11.0721	0.858
11.1051	0.85
11.1382	0.85
11.1713	0.853
11.2043	0.851
11.2374	0.851
11.2705	0.8503
11.3036	0.848
11.3366	0.845
11.3697	0.848
11.4028	0.838
11.4358	0.833
11.4689	0.8219
11.502	0.8094
11.535	0.8
11.5681	0.797
11.6012	0.792
11.6343	0.7767
11.6673	0.7304
11.7004	0.693
11.7335	0.7109
11.7665	0.7589
11.7996	0.7977
11.8327	0.8156
11.8657	0.8248
11.8988	0.8305
11.9319	0.835
11.965	0.835
11.998	0.8367
12.0311	0.835
12.0642	0.8376
12.0972	0.835
12.1303	0.8359
12.1634	0.836
12.1964	0.835
12.2295	0.838
12.2626	0.839
12.2957	0.8372
12.3287	0.8355
12.3618	0.8369
12.3949	0.836
12.4279	0.835
12.461	0.8336
12.4941	0.831
12.5271	0.831
12.5602	0.83
12.5933	0.825
12.6264	0.82
12.6594	0.816
12.6925	0.8113
12.7256	0.7985
12.7586	0.7923
12.7917	0.7775
12.8248	0.7641
12.8578	0.7475
12.8909	0.7208
12.924	0.6892
12.9571	0.6384
12.9901	0.5487
13.0232	0.4898
13.0563	0.4001
13.0893	0.3197
13.1224	0.254
13.1555	0.1919
13.1885	0.1569
13.2216	0.1364
13.2547	0.128
13.2878	0.125
13.3208	0.1465
13.3539	0.2147
13.387	0.3037
13.42	0.4579
13.4531	0.5565
13.4862	0.6265
13.5192	0.6634
13.5523	0.6878
13.5854	0.7123
13.6185	0.7252
13.6515	0.7379
13.6846	0.745
13.7177	0.747
13.7507	0.7566
13.7838	0.752
13.8169	0.755
13.8499	0.758
13.883	0.756
13.9161	0.7541
13.9492	0.7462
13.9822	0.729
14.0153	0.706
14.0484	0.6668
14.0814	0.6479
14.1145	0.6584
14.1476	0.6901
14.1806	0.7264
14.2137	0.7379
14.2468	0.745
14.2799	0.7435
14.3129	0.7286
14.346	0.7127
14.3791	0.6942
14.4121	0.6695
14.4452	0.6441
14.4783	0.6232
14.5113	0.6027
14.5444	0.5985
14.5775	0.5892
14.6106	0.5715
14.6436	0.5518
14.6767	0.5241
14.7098	0.4993
14.7428	0.485
14.7759	0.4983
14.809	0.5372
14.842	0.5972
14.8751	0.62
14.9082	0.6437
14.9413	0.6664
14.9743	0.6774
15.0074	0.683
