Infrared Spectrum: 3,17Beta-DIHYDROXY-1,3,5(10)ESTRATRIEN-16Beta-YLACETIC ACID LACTONE
Formula: C20 H24 O3
CAS: 95696-45-0
State: SOLID (0.02 MOLAR IN KBr PELLET)
Melting point: 304-305 C
Class: COBLENTZ III
Instrument: PERKIN-ELMER 21 (GRATING)
Instrument parameters: FILTER AT ABOUT 10 MICRONS
Resolution: 2
Origin: ABBOTT LABORATORIES
1/CM	TRANSMITTANCE
668	0.4317
677	0.4508
686	0.4985
695	0.5415
704	0.5708
713	0.5838
722	0.581
731	0.5114
740	0.6091
749	0.627
758	0.6135
767	0.5858
776	0.5788
785	0.4937
794	0.4125
803	0.5677
812	0.4433
821	0.3277
830	0.5404
839	0.5788
848	0.558
857	0.4354
866	0.5627
875	0.4936
884	0.2656
893	0.4889
902	0.4896
911	0.3639
920	0.4988
929	0.4601
938	0.5586
947	0.5517
956	0.5245
965	0.4486
974	0.4641
983	0.411
992	0.3967
1001	0.3872
1010	0.1902
1019	0.1387
1028	0.2328
1037	0.1133
1046	0.3332
1055	0.2195
1064	0.4552
1073	0.5801
1082	0.5706
1091	0.5049
1100	0.5036
1109	0.4741
1118	0.3775
1127	0.4339
1136	0.3129
1145	0.2968
1154	0.2328
1163	0.2953
1172	0.1736
1181	0.0576
1190	0.0959
1199	0.2363
1208	0.3728
1217	0.364
1226	0.3132
1235	0.221
1244	0.1988
1253	0.2462
1262	0.3083
1271	0.3945
1280	0.3947
1289	0.3118
1298	0.3128
1307	0.3163
1316	0.4659
1325	0.4045
1334	0.335
1343	0.3296
1352	0.226
1361	0.1828
1370	0.3051
1379	0.4329
1388	0.3825
1397	0.4752
1406	0.5261
1415	0.4726
1424	0.4161
1433	0.4327
1442	0.3577
1451	0.2668
1460	0.2874
1469	0.2112
1478	0.3205
1487	0.4113
1496	0.2762
1505	0.2707
1514	0.5474
1523	0.6135
1532	0.6204
1541	0.6031
1550	0.5894
1559	0.5561
1568	0.524
1577	0.4373
1586	0.3402
1595	0.256
1604	0.51
1613	0.4801
1622	0.3569
1631	0.4519
1640	0.5387
1649	0.5312
1658	0.5154
1667	0.4917
1676	0.4486
1685	0.3998
1694	0.3595
1703	0.2765
1712	0.2034
1721	0.2202
1730	0.1478
1739	0.0522
1748	0.0266
1757	0.0406
1766	0.071
1775	0.1955
1784	0.3297
1793	0.4864
1802	0.598
1811	0.643
1820	0.6686
1829	0.6761
1838	0.6746
1847	0.6717
1856	0.6662
1865	0.6707
1874	0.6778
1883	0.6885
1892	0.695
1901	0.6995
1910	0.6986
1919	0.6946
1928	0.6897
1937	0.685
1946	0.6806
1955	0.6766
1964	0.673
1973	0.6701
1982	0.6672
1991	0.6644
2000	0.6622
2009	0.66
2018	0.6579
2027	0.6558
2036	0.6538
2045	0.6522
2054	0.6506
2063	0.649
2072	0.6474
2081	0.6459
2090	0.6444
2099	0.6429
2108	0.6413
2117	0.6399
2126	0.6384
2135	0.6368
2144	0.6353
2153	0.6336
2162	0.6307
2171	0.6278
2180	0.625
2189	0.6224
2198	0.6201
2207	0.618
2216	0.6158
2225	0.6139
2234	0.6122
2243	0.6105
2252	0.6087
2261	0.6046
2270	0.6003
2279	0.5952
2288	0.5902
2297	0.5864
2306	0.5842
2315	0.5828
2324	0.5815
2333	0.5807
2342	0.5801
2351	0.5796
2360	0.5798
2369	0.5805
2378	0.5803
2387	0.5779
2396	0.5752
2405	0.5722
2414	0.5693
2423	0.5663
2432	0.5633
2441	0.5603
2450	0.5574
2459	0.5548
2468	0.5529
2477	0.5512
2486	0.5494
2495	0.5476
2504	0.5459
2513	0.5438
2522	0.5416
2531	0.5395
2540	0.5373
2549	0.5351
2558	0.533
2567	0.5308
2576	0.5286
2585	0.5264
2594	0.5242
2603	0.5221
2612	0.5198
2621	0.5175
2630	0.5153
2639	0.5131
2648	0.5108
2657	0.5087
2666	0.5068
2675	0.5054
2684	0.5041
2693	0.5027
2702	0.5025
2711	0.5029
2720	0.5032
2729	0.5003
2738	0.4955
2747	0.4889
2756	0.4824
2765	0.4759
2774	0.4682
2783	0.4598
2792	0.4489
2801	0.4328
2810	0.4066
2819	0.363
2828	0.3139
2837	0.2653
2846	0.2617
2855	0.2765
2864	0.2903
2873	0.2796
2882	0.2568
2891	0.2341
2900	0.2115
2909	0.19
2918	0.1873
2927	0.1922
2936	0.2236
2945	0.2557
2954	0.2877
2963	0.3195
2972	0.351
2981	0.3824
2990	0.4136
2999	0.4462
3008	0.4681
3017	0.476
3026	0.4794
3035	0.4806
3044	0.4808
3053	0.4795
3062	0.4772
3071	0.4733
3080	0.4688
3089	0.4633
3098	0.4572
3107	0.4512
3116	0.4452
3125	0.4384
3134	0.428
3143	0.4177
3152	0.4071
3161	0.3971
3170	0.3882
3179	0.3794
3188	0.3681
3197	0.3539
3206	0.3385
3215	0.3214
3224	0.2995
3233	0.2778
3242	0.2563
3251	0.2348
3260	0.2135
3269	0.1923
3278	0.1712
3287	0.1502
3296	0.1293
3305	0.1097
3314	0.1062
3323	0.11
3332	0.1386
3341	0.1704
3350	0.2019
3359	0.2333
3368	0.2646
3377	0.2957
3386	0.3266
3395	0.3549
3404	0.3695
3413	0.3806
3422	0.3896
3431	0.3979
3440	0.4077
3449	0.418
3458	0.4256
3467	0.4331
3476	0.4437
3485	0.457
3494	0.4794
3503	0.5137
3512	0.5316
3521	0.539
3530	0.5438
3539	0.5465
3548	0.5488
3557	0.5503
3566	0.5515
3575	0.5521
3584	0.5525
3593	0.5529
3602	0.5528
3611	0.5526
3620	0.5522
3629	0.5513
3638	0.5502
3647	0.5488
3656	0.5475
3665	0.5462
3674	0.5447
3683	0.5429
3692	0.541
3701	0.5392
3710	0.5374
3719	0.5357
3728	0.5343
3737	0.5329
3746	0.5316
3755	0.5302
3764	0.5292
3773	0.5281
3782	0.5271
3791	0.5261
3800	0.5251
3809	0.5241
3818	0.523
3827	0.5222
3836	0.5214
3845	0.5205
3854	0.5197
3863	0.5188
3872	0.5179
3881	0.5171
3890	0.5163
3899	0.5153
3908	0.5144
3917	0.5135
3926	0.5126
3935	0.5117
3944	0.5108
3953	0.5099
3962	0.509
3971	0.5082
3980	0.5072
3989	0.5064
3998	0.5057
