Infrared Spectrum: 3-(Beta-MORPHOLINOETHYL)-3-PHENYL-2-BENZOFURANONE
Formula: C20 H21 N O3
CAS: 95696-17-6
State: SOLUTION (7% IN CHCl3)
Class: COBLENTZ
Instrument: PERKIN-ELMER
Sampling: TRANSMISSION
Path length: 0.010 CM
Resolution: 4
Origin: ABBOTT LABORATORIES - WASHBURN
MICROMETERS	TRANSMITTANCE
2.111	0.984
2.14451	0.986
2.17802	0.989
2.21153	0.998
2.24504	1
2.27855	1.005
2.31206	1.01
2.34557	1.008
2.37908	1.001
2.41259	1.005
2.4461	1.01
2.47961	1.013
2.51312	1.006
2.54663	1.003
2.58014	1.008
2.61365	1.011
2.64716	1.0131
2.68067	1.015
2.71418	1.015
2.74769	1.011
2.7812	1.0053
2.81471	1.0013
2.84822	0.9936
2.88173	0.9634
2.91524	0.959
2.94875	0.957
2.98226	0.959
3.01577	0.9639
3.04928	0.971
3.08279	0.9778
3.1163	0.981
3.14981	0.9887
3.18332	0.994
3.21683	1.0009
3.25034	1.001
3.28385	0.9773
3.31736	0.9112
3.35087	0.8808
3.38438	0.8115
3.41789	0.7488
3.4514	0.7431
3.48491	0.7685
3.51842	0.811
3.55193	0.7647
3.58544	0.7347
3.61895	0.652
3.65246	0.8299
3.68597	0.8812
3.71948	0.9365
3.75299	0.9708
3.7865	0.974
3.82001	0.9927
3.85352	1.0059
3.88703	1.0109
3.92054	1.0151
3.95405	1.008
3.98756	1.003
4.02107	0.9962
4.05458	0.989
4.08809	0.9812
4.1216	0.971
4.15511	0.9739
4.18862	0.9779
4.22213	0.9841
4.25564	0.976
4.28915	0.9741
4.32266	0.9641
4.35617	0.963
4.38968	0.9492
4.42319	0.9439
4.4567	0.947
4.49021	0.947
4.52372	0.946
4.55723	0.9411
4.59074	0.9371
4.62425	0.936
4.65776	0.932
4.69127	0.932
4.72478	0.9241
4.75829	0.921
4.7918	0.922
4.82531	0.9191
4.85882	0.919
4.89233	0.921
4.92584	0.924
4.95935	0.921
4.99286	0.919
5.02637	0.919
5.05988	0.9155
5.09339	0.899
5.1269	0.895
5.16041	0.892
5.19392	0.9007
5.22743	0.904
5.26094	0.894
5.29445	0.894
5.32796	0.897
5.36147	0.894
5.39498	0.8941
5.42849	0.8849
5.462	0.8431
5.49551	0.7505
5.52902	0.4956
5.56253	0.2225
5.59604	0.1749
5.62955	0.3826
5.66306	0.7247
5.69657	0.8128
5.73008	0.8422
5.76359	0.8664
5.7971	0.885
5.83061	0.88
5.86412	0.8862
5.89763	0.8909
5.93114	0.887
5.96465	0.882
5.99816	0.884
6.03167	0.8798
6.06518	0.8781
6.09869	0.887
6.1322	0.8782
6.16571	0.7896
6.19922	0.6525
6.23273	0.796
6.26624	0.7
6.29975	0.8048
6.33326	0.8325
6.36677	0.8713
6.40028	0.8973
6.43379	0.9043
6.4673	0.9019
6.50081	0.9067
6.53432	0.9115
6.56783	0.914
6.60134	0.9044
6.63485	0.8874
6.66836	0.8408
6.70187	0.673
6.73538	0.7099
6.76889	0.6283
6.8024	0.5221
6.83591	0.585
6.86942	0.2946
6.90293	0.5254
6.93644	0.6505
6.96995	0.6481
7.00346	0.7744
7.03697	0.8487
7.07048	0.8685
7.10399	0.867
7.1375	0.8596
7.17101	0.8419
7.20452	0.842
7.23803	0.8497
7.27154	0.8484
7.30505	0.7667
7.33856	0.8221
7.37207	0.7066
7.40558	0.8206
7.43909	0.8443
7.4726	0.8207
7.50611	0.7704
7.53962	0.794
7.57313	0.7735
7.60664	0.771
7.64015	0.7777
7.67366	0.747
7.70718	0.6576
7.74069	0.652
7.7742	0.5655
7.80771	0.6129
7.84122	0.5502
7.87473	0.6683
7.90824	0.778
7.94175	0.774
7.97526	0.7428
8.00877	0.7499
8.04228	0.738
8.07579	0.6604
8.1093	0.5367
8.14281	0.4925
8.17632	0.4966
8.20983	0.522
8.24334	0.5415
8.27685	0.5642
8.31036	0.606
8.34387	0.6859
8.37738	0.7917
8.41089	0.8153
8.4444	0.7956
8.47791	0.776
8.51142	0.7504
8.54493	0.7176
8.57844	0.6733
8.61195	0.5926
8.64546	0.6333
8.67897	0.707
8.71248	0.6322
8.74599	0.5272
8.7795	0.5351
8.81301	0.6569
8.84652	0.6438
8.88003	0.5298
8.91354	0.3331
8.94705	0.352
8.98056	0.2546
9.01407	0.2022
9.04758	0.4053
9.08109	0.6085
9.1146	0.7112
9.14811	0.7401
9.18162	0.7487
9.21513	0.7007
9.24864	0.6557
9.28215	0.5983
9.31566	0.5164
9.34917	0.5443
9.38268	0.596
9.41619	0.631
9.4497	0.5653
9.48321	0.5071
9.51672	0.4806
9.55023	0.4242
9.58374	0.3336
9.61725	0.3717
9.65076	0.467
9.68427	0.398
9.71778	0.6021
9.75129	0.6517
9.7848	0.5243
9.81831	0.3315
9.85182	0.4894
9.88533	0.5187
9.91884	0.5994
9.95235	0.7156
9.98586	0.7414
10.0194	0.7946
10.0529	0.8238
10.0864	0.8454
10.1199	0.8483
10.1534	0.852
10.1869	0.8564
10.2204	0.855
10.2539	0.848
10.2874	0.845
10.321	0.8086
10.3545	0.7641
10.388	0.6616
10.4215	0.5107
10.455	0.4597
10.4885	0.6187
10.522	0.7626
10.5555	0.7839
10.589	0.7972
10.6225	0.8262
10.6561	0.8406
10.6896	0.8502
10.7231	0.8624
10.7566	0.868
10.7901	0.8639
10.8236	0.8359
10.8571	0.7929
10.8906	0.803
10.9241	0.8151
10.9576	0.7944
10.9912	0.7717
11.0247	0.774
11.0582	0.7725
11.0917	0.7226
11.1252	0.6398
11.1587	0.6245
11.1922	0.6681
11.2257	0.7291
11.2592	0.7537
11.2927	0.7275
11.3263	0.6716
11.3598	0.6672
11.3933	0.7271
11.4268	0.785
11.4603	0.799
11.4938	0.7954
11.5273	0.7754
11.5608	0.6941
11.5943	0.575
11.6278	0.484
11.6614	0.5151
11.6949	0.638
11.7284	0.7451
11.7619	0.8057
11.7954	0.8388
11.8289	0.8608
11.8624	0.877
11.8959	0.8786
11.9294	0.882
11.9629	0.884
11.9965	0.89
12.03	0.8853
12.0635	0.88
12.097	0.8794
12.1305	0.8874
12.164	0.894
12.1975	0.8984
12.231	0.9028
12.2645	0.905
12.298	0.909
12.3316	0.909
12.3651	0.912
12.3986	0.9138
12.4321	0.915
12.4656	0.9217
12.4991	0.9317
12.5326	0.9315
12.5661	0.9464
12.5996	0.9646
12.6331	0.9749
12.6667	0.9897
12.7002	0.998
12.7337	0.9961
12.7672	0.998
12.8007	1.001
12.8342	1.001
12.8677	1
12.9012	1.001
12.9347	1.008
12.9682	1.0174
13.0018	1.02
13.0353	1.02
13.0688	1.02
13.1023	1.02
13.1358	1.018
13.1693	1.02
13.2028	1.02
13.2363	1.02
13.2698	1.02
13.3034	1.02
13.3369	1.02
13.3704	1.018
13.4039	1.018
13.4374	1.018
13.4709	1.018
13.5044	1.018
13.5379	1.0197
13.5714	1.018
13.6049	1.018
13.6385	1.018
13.672	1.018
13.7055	1.02
13.739	1.02
13.7725	1.02
13.806	1.02
13.8395	1.02
13.873	1.02
13.9065	1.02
13.94	1.0109
13.9736	0.9968
14.0071	0.9617
14.0406	0.9242
14.0741	0.8816
14.1076	0.792
14.1411	0.7227
14.1746	0.667
14.2081	0.6581
14.2416	0.6648
14.2751	0.6622
14.3087	0.6505
14.3422	0.6214
14.3757	0.5857
14.4092	0.5522
14.4427	0.547
14.4762	0.5926
14.5097	0.6943
14.5432	0.7497
14.5767	0.7931
14.6102	0.8256
14.6438	0.8492
14.6773	0.8693
14.7108	0.8832
14.7443	0.8925
14.7778	0.9104
14.8113	0.9297
14.8448	0.9436
14.8783	0.9494
14.9118	0.949
14.9453	0.947
14.9789	0.949
15.0124	0.9424
15.0459	0.9275
15.0794	0.9139
15.1129	0.8878
15.1464	0.877
15.1799	0.8736
15.2134	0.886
15.2469	0.8695
15.2804	0.8517
15.314	0.83
15.3475	0.8328
15.381	0.8567
15.4145	0.8925
15.448	0.882
