Infrared Spectrum: Diphenamid
Formula: C 16 H 17 N O
CAS: 957-51-7
State: gas
Instrument: HP-GC/MS/IRD
Origin: NIST Mass Spectrometry Data Center
1/CM	ABSORBANCE
550	0.00105
562	0.002286
574	0.000612
586	9e-05
598	0.000318
610	0.001968
622	0.006342
634	0.004326
646	0.00153
658	0.001404
670	0.003264
682	0.006168
694	0.01683
706	0.014202
718	0.008904
730	0.007068
742	0.011448
754	0.005184
766	0.001236
778	0.000588
790	0.000288
802	0.000108
814	7.2e-05
826	9.6e-05
838	0.00015
850	0.000252
862	0.000192
874	0.000462
886	0.000318
898	0.000132
910	0.000504
922	0.000246
934	0.000192
946	0.00033
958	0.00093
970	0.001122
982	0.000504
994	0.000708
1006	0.001044
1018	0.001242
1030	0.0045
1042	0.00303
1054	0.002724
1066	0.003156
1078	0.004428
1090	0.005616
1102	0.009522
1114	0.016152
1126	0.01683
1138	0.010584
1150	0.006426
1162	0.004524
1174	0.00348
1186	0.003666
1198	0.002856
1210	0.002124
1222	0.002034
1234	0.002676
1246	0.004068
1258	0.006612
1270	0.006462
1282	0.004248
1294	0.002988
1306	0.002544
1318	0.002922
1330	0.003588
1342	0.00486
1354	0.007428
1366	0.013296
1378	0.023562
1390	0.023658
1402	0.013428
1414	0.00864
1426	0.005724
1438	0.00648
1450	0.01227
1462	0.011526
1474	0.009474
1486	0.010638
1498	0.014034
1510	0.005694
1522	0.003954
1534	0.003438
1546	0.003024
1558	0.00273
1570	0.002886
1582	0.003924
1594	0.005628
1606	0.004692
1618	0.002322
1630	0.00267
1642	0.004716
1654	0.008586
1666	0.020712
1678	0.057234
1690	0.03306
1702	0.00897
1714	0.004206
1726	0.002196
1738	0.001464
1750	0.001278
1762	0.00102
1774	0.001026
1786	0.001218
1798	0.001272
1810	0.0009
1822	0.000582
1834	0.00042
1846	0.0003
1858	0.000366
1870	0.000636
1882	0.000738
1894	0.00069
1906	0.000348
1918	0.000426
1930	0.000738
1942	0.00105
1954	0.000972
1966	0.000372
1978	0.00015
1990	0.000132
2002	9.6e-05
2014	8.4e-05
2026	9.6e-05
2038	9e-05
2050	7.2e-05
2062	4.2e-05
2074	6e-05
2086	6.6e-05
2098	7.2e-05
2110	8.4e-05
2122	3e-05
2134	1.8e-05
2146	0
2158	3.6e-05
2170	6.6e-05
2182	4.8e-05
2194	5.4e-05
2206	7.8e-05
2218	9.6e-05
2230	0.000126
2242	5.4e-05
2254	2.4e-05
2266	1.8e-05
2278	1.8e-05
2290	1.2e-05
2302	4.2e-05
2314	0.000162
2326	0.000132
2338	9e-05
2350	0.000108
2362	0.000102
2374	6e-05
2386	6.6e-05
2398	6e-05
2410	6.6e-05
2422	6e-05
2434	4.8e-05
2446	6.6e-05
2458	4.8e-05
2470	4.8e-05
2482	7.2e-05
2494	8.4e-05
2506	0.00012
2518	0.000132
2530	0.00015
2542	0.000138
2554	8.4e-05
2566	0.000162
2578	0.000174
2590	0.000192
2602	0.000228
2614	0.000162
2626	0.00018
2638	0.00018
2650	0.000168
2662	0.000144
2674	0.00015
2686	0.000156
2698	0.000162
2710	0.00021
2722	0.000252
2734	0.000324
2746	0.000366
2758	0.000492
2770	0.000636
2782	0.000876
2794	0.001248
2806	0.001824
2818	0.002286
2830	0.002676
2842	0.002946
2854	0.00375
2866	0.004914
2878	0.005664
2890	0.006468
2902	0.007626
2914	0.009156
2926	0.011286
2938	0.012228
2950	0.00996
2962	0.006588
2974	0.004644
2986	0.003678
2998	0.003768
3010	0.005004
3022	0.008904
3034	0.012024
3046	0.00822
3058	0.009828
3070	0.01635
3082	0.009102
3094	0.006144
3106	0.003408
3118	0.00171
3130	0.00087
3142	0.000582
3154	0.00054
3166	0.000492
3178	0.000294
3190	0.000246
3202	0.00018
3214	0.00012
3226	0.000126
3238	0.00012
3250	0.000132
3262	7.2e-05
3274	0.000138
3286	0.000168
3298	7.2e-05
3310	0.000198
3322	0.00027
3334	0.000378
3346	0.000564
3358	0.00036
3370	0.000222
3382	0.000144
3394	0.000126
3406	7.2e-05
3418	0.00012
3430	0.000138
3442	7.8e-05
3454	0.000126
3466	0.000114
3478	3e-05
3490	9e-05
3502	0.000114
3514	0.000126
3526	7.8e-05
3538	0.000108
3550	0.000108
3562	8.4e-05
3574	0.000138
3586	7.2e-05
3598	0.000168
3610	0.000162
3622	0.000174
3634	0.000198
3646	0.000258
3658	0.00018
3670	0.000126
3682	0.000198
3694	0.000108
3706	0.000192
3718	0.000192
3730	9e-05
3742	0.000186
3754	0.000252
3766	0.000156
3778	0.000162
3790	0.000156
3802	0.00015
3814	0.000168
3826	0.000174
3838	0.000144
