Infrared Spectrum: 2,6-Difluorobutyrophenone
Formula: C 10 H 10 F 2 O
CAS: 95727-77-8
State: gas
Origin: EPA-IR VAPOR PHASE LIBRARY
1/CM	ABSORBANCE
549.8	0.008781
559.445	0.006241
569.09	0.011871
578.734	0.020601
588.379	0.014801
598.024	0.006541
607.669	0.003881
617.313	0.002461
626.958	0.002121
636.603	0.002891
646.248	0.002881
655.893	0.002581
665.537	0.003281
675.182	0.003121
684.827	0.004191
694.472	0.006121
704.116	0.012271
713.761	0.022491
723.406	0.023581
733.051	0.019081
742.695	0.014191
752.34	0.010581
761.985	0.011071
771.63	0.026481
781.275	0.066621
790.919	0.066191
800.564	0.030791
810.209	0.017991
819.854	0.015121
829.498	0.011721
839.143	0.007221
848.788	0.005831
858.433	0.005571
868.078	0.005201
877.722	0.006321
887.367	0.010601
897.012	0.012051
906.657	0.007211
916.301	0.004211
925.946	0.004051
935.591	0.004891
945.236	0.007531
954.88	0.012971
964.525	0.022901
974.17	0.045091
983.815	0.077371
993.46	0.105041
1003.1	0.119771
1012.75	0.108511
1022.39	0.066131
1032.04	0.031441
1041.68	0.021521
1051.33	0.016981
1060.97	0.014061
1070.62	0.014001
1080.26	0.014101
1089.91	0.012441
1099.55	0.010271
1109.2	0.008541
1118.84	0.005881
1128.49	0.004891
1138.13	0.004351
1147.78	0.005071
1157.42	0.008361
1167.07	0.014421
1176.71	0.020951
1186.36	0.035171
1196	0.058201
1205.64	0.058031
1215.29	0.047031
1224.93	0.058271
1234.58	0.087011
1244.22	0.075741
1253.87	0.045751
1263.51	0.047101
1273.16	0.093671
1282.8	0.110991
1292.45	0.056891
1302.09	0.035541
1311.74	0.022021
1321.38	0.015021
1331.03	0.014521
1340.67	0.018271
1350.32	0.026461
1359.96	0.029911
1369.61	0.022921
1379.25	0.017421
1388.9	0.015061
1398.54	0.013851
1408.18	0.016081
1417.83	0.017231
1427.47	0.019011
1437.12	0.025781
1446.76	0.049141
1456.41	0.136151
1466.05	0.216631
1475.7	0.110381
1485.34	0.031921
1494.99	0.016771
1504.63	0.011951
1514.28	0.010061
1523.92	0.011051
1533.57	0.014821
1543.21	0.020141
1552.86	0.023881
1562.5	0.030761
1572.15	0.042821
1581.79	0.060381
1591.44	0.072591
1601.08	0.070521
1610.73	0.121011
1620.37	0.164221
1630.01	0.076531
1639.66	0.020671
1649.3	0.012371
1658.95	0.011091
1668.59	0.011921
1678.24	0.015941
1687.88	0.024291
1697.53	0.041141
1707.17	0.079291
1716.82	0.150251
1726.46	0.179411
1736.11	0.104931
1745.75	0.043391
1755.4	0.020611
1765.04	0.012061
1774.69	0.008331
1784.33	0.006091
1793.98	0.004791
1803.62	0.004261
1813.27	0.003871
1822.91	0.004341
1832.55	0.004611
1842.2	0.003051
1851.84	0.002031
1861.49	0.001781
1871.13	0.001831
1880.78	0.001521
1890.42	0.001531
1900.07	0.002131
1909.71	0.005041
1919.36	0.005931
1929	0.002361
1938.65	0.001321
1948.29	0.0012585
1957.94	0.001331
1967.58	0.001461
1977.23	0.001541
1986.87	0.001551
1996.52	0.001621
2006.16	0.001601
2015.81	0.001481
2025.45	0.001291
2035.1	0.0012137
2044.74	0.0012009
2054.38	0.0011106
2064.03	0.0009794
2073.67	0.0009804
2083.32	0.000889
2092.96	0.0008196
2102.61	0.0008924
2112.25	0.0008045
2121.9	0.0008519
2131.54	0.0009235
2141.19	0.0010311
2150.83	0.0008245
2160.48	0.0009456
2170.12	0.0009766
2179.77	0.0009954
2189.41	0.0010608
2199.06	0.0010154
2208.7	0.0012046
2218.35	0.0012041
2227.99	0.001271
2237.64	0.001461
2247.28	0.001731
2256.92	0.001991
2266.57	0.002201
2276.21	0.002511
2285.86	0.002421
2295.5	0.002111
2305.15	0.002101
2314.79	0.001651
2324.44	0.001431
2334.08	0.001331
2343.73	0.001551
2353.37	0.001411
2363.02	0.001401
2372.66	0.001371
2382.31	0.001421
2391.95	0.001163
2401.6	0.0009532
2411.24	0.0009373
2420.89	0.0010374
2430.53	0.0011501
2440.18	0.0012564
2449.82	0.001341
2459.47	0.001671
2469.11	0.001701
2478.75	0.001591
2488.4	0.001471
2498.04	0.001661
2507.69	0.001971
2517.33	0.002071
2526.98	0.001771
2536.62	0.001491
2546.27	0.0011545
2555.91	0.0010902
2565.56	0.0009766
2575.2	0.0008869
2584.85	0.0006791
2594.49	0.0007738
2604.14	0.0008674
2613.78	0.0011093
2623.43	0.0008775
2633.07	0.0007093
2642.72	0.000957
2652.36	0.0008857
2662.01	0.0009238
2671.65	0.0010798
2681.29	0.001291
2690.94	0.001281
2700.58	0.001401
2710.23	0.001361
2719.87	0.001771
2729.52	0.002261
2739.16	0.003001
2748.81	0.003331
2758.45	0.002891
2768.1	0.002381
2777.74	0.002261
2787.39	0.002581
2797.03	0.002861
2806.68	0.003201
2816.32	0.003721
2825.97	0.004081
2835.61	0.004701
2845.26	0.005961
2854.9	0.007821
2864.55	0.011811
2874.19	0.020921
2883.84	0.032741
2893.48	0.033221
2903.12	0.028071
2912.77	0.027791
2922.41	0.030301
2932.06	0.039111
2941.7	0.052181
2951.35	0.053281
2960.99	0.057611
2970.64	0.077841
2980.28	0.067821
2989.93	0.037661
2999.57	0.020871
3009.22	0.013201
3018.86	0.009611
3028.51	0.007901
3038.15	0.006381
3047.8	0.004941
3057.44	0.004311
3067.09	0.005171
3076.73	0.007321
3086.38	0.008061
3096.02	0.005931
3105.67	0.003861
3115.31	0.002491
3124.95	0.002011
3134.6	0.001821
3144.24	0.001661
3153.89	0.001741
3163.53	0.001671
3173.18	0.001491
3182.82	0.001481
3192.47	0.001261
3202.11	0.0010576
3211.76	0.0008839
3221.4	0.000716
3231.05	0.0008536
3240.69	0.0005119
3250.34	0.0004087
3259.98	0.00032694
3269.63	0.00035815
3279.27	0.0004437
3288.92	0.0005224
3298.56	0.0004099
3308.21	0.0003772
3317.85	0.00031483
3327.49	0.0004531
3337.14	0.0004259
3346.78	0.000713
3356.43	0.0003666
3366.07	0.0006398
3375.72	0.0006629
3385.36	0.0009242
3395.01	0.001189
3404.65	0.001831
3414.3	0.002381
3423.94	0.003131
3433.59	0.002931
3443.23	0.002051
3452.88	0.0012246
3462.52	0.0006798
3472.17	0.00032402
3481.81	0.0004334
3491.46	0.0004807
3501.1	0.0005253
3510.75	0.000465
3520.39	0.00028522
3530.04	0
3539.68	0.00033967
3549.32	0.0004025
3558.97	0.000185
3568.61	0.0002292
3578.26	0.0003699
3587.9	0.0004716
3597.55	0.000364
3607.19	0.0004807
3616.84	0.0004349
3626.48	0.000270545
3636.13	0.00029612
3645.77	0.0001953
3655.42	0.0002304
3665.06	0.00029222
3674.71	0.0004682
3684.35	0.0004013
3694	0.0001962
3703.64	0.000261324
3713.29	0.000126
3722.93	0.0001737
3732.58	0.0004033
3742.22	0.0004281
3751.86	0.000457
3761.51	0.0004267
3771.15	0.00028004
3780.8	0.0004862
3790.44	0.0005206
3800.09	0.0005047
3809.73	0.0006553
3819.38	0.0006263
3829.02	0.0004447
3838.67	0.0007347
3848.31	0.0007255
3857.96	0.0004624
3867.6	0.0006705
3877.25	0.0004622
3886.89	0.0004264
3896.54	0.00035721
3906.18	0.0002965
3915.83	0.00032176
3925.47	0.0003669
3935.12	0.00031942
3944.76	0.0004761
3954.41	0.0006651
3964.05	0.0007645
3973.69	0.0004791
3983.34	0.0004807
3992.98	0.0005947
