Infrared Spectrum: P-PHENYLAZO CARBANILIC ACID, n-UNDECYL ESTER
Formula: C24 H33 N3 O2
CAS: 95747-68-5
State: SOLID (2 mg / 100 mg KBr)
Melting point: 110.5-111 C
Class: COBLENTZ
Instrument: Not specified, most likely a grating spectrometer.
Sampling: TRANSMISSION
Resolution: 4
Origin: CITRUS EXPERIMENT STATION, UNIVERSITY OF FLORIDA (G. EDWARDS)
MICROMETERS	TRANSMITTANCE
2.073	0.874
2.10617	0.879
2.13935	0.882
2.17252	0.891
2.2057	0.889
2.23887	0.893
2.27205	0.894
2.30522	0.898
2.33839	0.903
2.37157	0.905
2.40474	0.906
2.43792	0.91
2.47109	0.914
2.50427	0.918
2.53744	0.921
2.57062	0.922
2.60379	0.919
2.63696	0.921
2.67014	0.926
2.70331	0.929
2.73649	0.93
2.76966	0.938
2.80284	0.939
2.83601	0.942
2.86918	0.941
2.90236	0.937
2.93553	0.885
2.96871	0.7
3.00188	0.764
3.03506	0.93
3.06823	0.95
3.1014	0.965
3.13458	0.967
3.16775	0.973
3.20093	0.963
3.2341	0.95
3.26728	0.933
3.30045	0.949
3.33362	0.934
3.3668	0.703
3.39997	0.481
3.43315	0.703
3.46632	0.675
3.4995	0.632
3.53267	0.911
3.56585	0.931
3.59902	0.937
3.63219	0.945
3.66537	0.95
3.69854	0.953
3.73172	0.951
3.76489	0.954
3.79807	0.959
3.83124	0.965
3.86441	0.962
3.89759	0.971
3.93076	0.971
3.96394	0.971
3.99711	0.978
4.03029	0.979
4.06346	0.981
4.09663	0.982
4.12981	0.985
4.16298	0.983
4.19616	0.982
4.22933	0.981
4.26251	0.982
4.29568	0.985
4.32885	0.985
4.36203	0.99
4.3952	0.993
4.42838	0.99
4.46155	0.995
4.49473	0.993
4.5279	0.994
4.56108	0.995
4.59425	0.994
4.62742	0.995
4.6606	0.997
4.69377	1
4.72695	1.005
4.76012	1.002
4.7933	1.001
4.82647	1
4.85964	0.997
4.89282	1.001
4.92599	0.997
4.95917	1.002
4.99234	1.001
5.02552	1.002
5.05869	1.001
5.09186	0.995
5.12504	0.997
5.15821	1.004
5.19139	0.995
5.22456	0.997
5.25774	0.998
5.29091	1.005
5.32408	1.012
5.35726	1.012
5.39043	1.01
5.42361	1.01
5.45678	1.008
5.48996	1.002
5.52313	0.998
5.55631	0.994
5.58948	1
5.62265	0.998
5.65583	0.994
5.689	0.983
5.72218	0.941
5.75535	0.855
5.78853	0.754
5.8217	0.288
5.85487	0.536
5.88805	0.834
5.92122	0.922
5.9544	0.943
5.98757	0.971
6.02075	0.982
6.05392	0.982
6.08709	0.981
6.12027	0.973
6.15344	0.907
6.18662	0.671
6.21979	0.449
6.25297	0.641
6.28614	0.85
6.31931	0.925
6.35249	0.905
6.38566	0.758
6.41884	0.589
6.45201	0.331
6.48519	0.159
6.51836	0.29
6.55154	0.537
6.58471	0.641
6.61788	0.743
6.65106	0.804
6.68423	0.826
6.71741	0.823
6.75058	0.687
6.78376	0.584
6.81693	0.643
6.8501	0.819
6.88328	0.802
6.91645	0.608
6.94963	0.758
6.9828	0.878
7.01598	0.798
7.04915	0.495
7.08232	0.622
7.1155	0.84
7.14867	0.882
7.18185	0.871
7.21502	0.855
7.2482	0.794
7.28137	0.826
7.31454	0.875
7.34772	0.917
7.38089	0.914
7.41407	0.919
7.44724	0.874
7.48042	0.806
7.51359	0.737
7.54677	0.675
7.57994	0.584
7.61311	0.475
7.64629	0.493
7.67946	0.653
7.71264	0.822
7.74581	0.855
7.77899	0.854
7.81216	0.804
7.84533	0.716
7.87851	0.653
7.91168	0.675
7.94486	0.553
7.97803	0.537
8.01121	0.513
8.04438	0.241
8.07755	0.155
8.11073	0.192
8.1439	0.326
8.17708	0.474
8.21025	0.593
8.24343	0.665
8.2766	0.731
8.30978	0.759
8.34295	0.806
8.37612	0.835
8.4093	0.808
8.44247	0.828
8.47565	0.871
8.50882	0.895
8.542	0.895
8.57517	0.893
8.60834	0.834
8.64152	0.657
8.67469	0.644
8.70787	0.716
8.74104	0.733
8.77422	0.852
8.80739	0.903
8.84056	0.913
8.87374	0.918
8.90691	0.925
8.94009	0.923
8.97326	0.923
9.00644	0.839
9.03961	0.75
9.07278	0.806
9.10596	0.751
9.13913	0.808
9.17231	0.887
9.20548	0.914
9.23866	0.89
9.27183	0.843
9.30501	0.688
9.33818	0.461
9.37135	0.49
9.40453	0.574
9.4377	0.625
9.47088	0.754
9.50405	0.836
9.53723	0.864
9.5704	0.883
9.60357	0.862
9.63675	0.814
9.66992	0.854
9.7031	0.906
9.73627	0.919
9.76945	0.891
9.80262	0.799
9.83579	0.854
9.86897	0.855
9.90214	0.913
9.93532	0.923
9.96849	0.921
10.0017	0.914
10.0348	0.926
10.068	0.927
10.1012	0.927
10.1344	0.933
10.1675	0.937
10.2007	0.937
10.2339	0.942
10.2671	0.939
10.3002	0.933
10.3334	0.922
10.3666	0.899
10.3998	0.909
10.4329	0.915
10.4661	0.938
10.4993	0.946
10.5325	0.939
10.5656	0.945
10.5988	0.943
10.632	0.955
10.6652	0.954
10.6983	0.955
10.7315	0.951
10.7647	0.951
10.7979	0.941
10.831	0.933
10.8642	0.887
10.8974	0.907
10.9305	0.938
10.9637	0.949
10.9969	0.957
11.0301	0.97
11.0632	0.966
11.0964	0.959
11.1296	0.954
11.1628	0.955
11.1959	0.955
11.2291	0.951
11.2623	0.95
11.2955	0.951
11.3286	0.953
11.3618	0.958
11.395	0.967
11.4282	0.967
11.4613	0.957
11.4945	0.951
11.5277	0.942
11.5609	0.937
11.594	0.931
11.6272	0.922
11.6604	0.906
11.6936	0.89
11.7267	0.87
11.7599	0.854
11.7931	0.804
11.8263	0.708
11.8594	0.605
11.8926	0.649
11.9258	0.792
11.959	0.832
11.9921	0.828
12.0253	0.852
12.0585	0.901
12.0916	0.914
12.1248	0.923
12.158	0.925
12.1912	0.934
12.2243	0.945
12.2575	0.949
12.2907	0.953
12.3239	0.945
12.357	0.919
12.3902	0.929
12.4234	0.943
12.4566	0.954
12.4897	0.95
12.5229	0.969
12.5561	0.955
12.5893	0.95
12.6224	0.953
12.6556	0.95
12.6888	0.955
12.722	0.955
12.7551	0.951
12.7883	0.943
12.8215	0.937
12.8547	0.934
12.8878	0.934
12.921	0.927
12.9542	0.911
12.9874	0.855
13.0205	0.783
13.0537	0.672
13.0869	0.593
13.1201	0.64
13.1532	0.767
13.1864	0.847
13.2196	0.868
13.2528	0.875
13.2859	0.898
13.3191	0.905
13.3523	0.914
13.3854	0.926
13.4186	0.93
13.4518	0.945
13.485	0.942
13.5181	0.95
13.5513	0.95
13.5845	0.938
13.6177	0.93
13.6508	0.921
13.684	0.926
13.7172	0.919
13.7504	0.891
13.7835	0.86
13.8167	0.834
13.8499	0.842
13.8831	0.852
13.9162	0.844
13.9494	0.804
13.9826	0.802
14.0158	0.859
14.0489	0.914
14.0821	0.927
14.1153	0.942
14.1485	0.943
14.1816	0.945
14.2148	0.942
14.248	0.942
14.2812	0.942
14.3143	0.935
14.3475	0.933
14.3807	0.93
14.4139	0.934
14.447	0.919
14.4802	0.899
14.5134	0.858
14.5466	0.778
14.5797	0.685
14.6129	0.639
14.6461	0.659
14.6792	0.723
14.7124	0.823
14.7456	0.872
14.7788	0.913
14.8119	0.919
14.8451	0.909
14.8783	0.889
14.9115	0.862
14.9446	0.842
14.9778	0.871
15.011	0.843
15.0442	0.899
