Infrared Spectrum: 6-Methyl-6-hepten-4-yn-3-ol
Formula: C 8 H 12 O
CAS: 95764-76-4
State: gas
Instrument: HP-GC/MS/IRD
Origin: NIST Mass Spectrometry Data Center
1/CM	ABSORBANCE
550	0.0008239
562	0.0005269
574	0.0004136
586	0.0002871
598	0.0002156
610	0.0001309
622	0.0001782
634	0.0001727
646	0.0002464
658	4.73e-05
670	9.79e-05
682	0.0001056
694	6.82e-05
706	0.000132
718	0.0002244
730	0.0001595
742	7.81e-05
754	5.5e-05
766	0.0001111
778	0.0001782
790	0.0002563
802	0.0004455
814	0.0004433
826	0.0003212
838	0.0004686
850	0.0006215
862	0.0012705
874	0.0022693
886	0.0036432
898	0.0048444
910	0.0042262
922	0.0032934
934	0.0023507
946	0.0031328
958	0.0051029
970	0.0053614
982	0.0042702
994	0.0043043
1006	0.0053031
1018	0.0058344
1030	0.005214
1042	0.0040128
1054	0.0033363
1066	0.0030646
1078	0.0026048
1090	0.0024464
1102	0.0028534
1114	0.00297
1126	0.0021384
1138	0.0013508
1150	0.0009427
1162	0.0007953
1174	0.0008316
1186	0.0009966
1198	0.0012507
1210	0.0015587
1222	0.0018964
1234	0.001947
1246	0.0019305
1258	0.0022066
1270	0.003146
1282	0.0052063
1294	0.0049401
1306	0.0031086
1318	0.0030327
1330	0.0041866
1342	0.0056518
1354	0.0069256
1366	0.007018
1378	0.0068167
1390	0.0053097
1402	0.0032703
1414	0.0022935
1426	0.0021703
1438	0.0023914
1450	0.0026609
1462	0.0026961
1474	0.0018403
1486	0.0009394
1498	0.0005632
1510	0.0004224
1522	0.0003916
1534	0.0003883
1546	0.0004444
1558	0.0005522
1570	0.0006512
1582	0.0010252
1594	0.0017578
1606	0.0025982
1618	0.0027269
1630	0.0016291
1642	0.0006831
1654	0.0003245
1666	0.0002024
1678	0.0001342
1690	9.9e-05
1702	0.0001001
1714	7.37e-05
1726	5.06e-05
1738	9.57e-05
1750	7.92e-05
1762	0.0001056
1774	0.0002002
1786	0.0004158
1798	0.0006897
1810	0.0005533
1822	0.000275
1834	0.0001001
1846	4.84e-05
1858	1.65e-05
1870	0
1882	1.65e-05
1894	3.74e-05
1906	2.31e-05
1918	5.72e-05
1930	4.95e-05
1942	4.18e-05
1954	3.52e-05
1966	2.53e-05
1978	3.3e-05
1990	2.2e-05
2002	2.53e-05
2014	3.08e-05
2026	3.52e-05
2038	4.29e-05
2050	1.87e-05
2062	1.87e-05
2074	6.05e-05
2086	2.09e-05
2098	2.2e-05
2110	1.98e-05
2122	2.86e-05
2134	4.18e-05
2146	4.07e-05
2158	6.49e-05
2170	6.16e-05
2182	6.27e-05
2194	9.13e-05
2206	0.0001859
2218	0.0002222
2230	0.0001067
2242	7.92e-05
2254	4.07e-05
2266	2.75e-05
2278	4.29e-05
2290	4.95e-05
2302	6.93e-05
2314	6.16e-05
2326	4.4e-05
2338	6.16e-05
2350	4.95e-05
2362	7.26e-05
2374	3.96e-05
2386	8.25e-05
2398	9.46e-05
2410	8.8e-05
2422	8.8e-05
2434	9.68e-05
2446	9.13e-05
2458	8.58e-05
2470	7.59e-05
2482	6.16e-05
2494	5.83e-05
2506	7.92e-05
2518	6.6e-05
2530	8.91e-05
2542	0.00011
2554	0.0001397
2566	0.0001265
2578	0.000121
2590	0.000154
2602	0.0001397
2614	9.24e-05
2626	9.9e-05
2638	0.0001397
2650	0.0001221
2662	0.0001573
2674	0.000165
2686	0.000165
2698	0.000165
2710	0.0001991
2722	0.0001925
2734	0.0002739
2746	0.0002783
2758	0.0002827
2770	0.0002959
2782	0.0003366
2794	0.0003861
2806	0.0004884
2818	0.0005786
2830	0.0007139
2842	0.0010747
2854	0.0018117
2866	0.0030888
2878	0.004642
2890	0.0054208
2902	0.004631
2914	0.0043285
2926	0.0059631
2938	0.0084007
2950	0.0086031
2962	0.0080025
2974	0.0106304
2986	0.0094677
2998	0.0043857
3010	0.0022759
3022	0.0015202
3034	0.0010967
3046	0.0008943
3058	0.0008822
3070	0.0008239
3082	0.0010131
3094	0.0016984
3106	0.0021186
3118	0.0008767
3130	0.0004818
3142	0.0003003
3154	0.0002552
3166	0.0001914
3178	0.0002178
3190	0.0001639
3202	0.0001243
3214	0.0001155
3226	0.0001199
3238	0.0001001
3250	0.0001122
3262	0.0001463
3274	8.36e-05
3286	8.69e-05
3298	4.84e-05
3310	5.06e-05
3322	9.68e-05
3334	9.9e-05
3346	6.6e-05
3358	8.69e-05
3370	7.37e-05
3382	9.9e-05
3394	0.0001254
3406	0.0001474
3418	0.0001716
3430	0.0001221
3442	0.0001606
3454	0.0001485
3466	0.0001276
3478	0.0001903
3490	0.0001716
3502	0.0001914
3514	0.0002079
3526	0.0001969
3538	0.0001936
3550	0.0002233
3562	0.0002057
3574	0.0001507
3586	0.0001507
3598	0.0001914
3610	0.0002695
3622	0.0005973
3634	0.0014234
3646	0.0025014
3658	0.0021791
3670	0.0010175
3682	0.0004026
3694	0.0002123
3706	0.0001815
3718	0.0002244
3730	0.0002013
3742	0.0001837
3754	0.0002288
3766	0.0002618
3778	0.0002068
3790	0.00022
3802	0.000242
3814	0.0002189
3826	0.0002068
3838	0.0001793
