Infrared Spectrum: SUCCINIC ACID, 2-HYDROXYMETHYLENE-3-ISOPROPYLIDENE-, DIETHYL ESTER
Formula: C12 H18 O5
CAS: 95769-42-9
Class: COBLENTZ
Instrument: Not specified, most likely a prism, grating, or hybrid spectrometer.
Sampling: TRANSMISSION
Path length: SMEAR
Resolution: 4
Origin: TENNESSEE EASTMAN COMPANY, RESEARCH LABORATORIES
MICROMETERS	TRANSMITTANCE
2.068	0.993
2.10905	0.988
2.1501	0.984
2.19115	0.984
2.23221	0.957
2.27326	0.953
2.31431	0.952
2.35536	0.952
2.39641	0.952
2.43746	0.952
2.47851	0.952
2.51956	0.952
2.56062	0.952
2.60167	0.953
2.64272	0.952
2.68377	0.952
2.72482	0.952
2.76587	0.943
2.80692	0.919
2.84797	0.904
2.88903	0.866
2.93008	0.783
2.97113	0.723
3.01218	0.696
3.05323	0.682
3.09428	0.686
3.13533	0.699
3.17639	0.723
3.21744	0.732
3.25849	0.732
3.29954	0.703
3.34059	0.411
3.38164	0.518
3.42269	0.561
3.46374	0.689
3.5048	0.74
3.54585	0.79
3.5869	0.803
3.62795	0.808
3.669	0.819
3.71005	0.836
3.7511	0.849
3.79215	0.858
3.83321	0.866
3.87426	0.875
3.91531	0.88
3.95636	0.885
3.99741	0.887
4.03846	0.889
4.07951	0.889
4.12056	0.887
4.16162	0.887
4.20267	0.887
4.24372	0.892
4.28477	0.89
4.32582	0.889
4.36687	0.892
4.40792	0.901
4.44898	0.899
4.49003	0.901
4.53108	0.901
4.57213	0.901
4.61318	0.901
4.65423	0.901
4.69528	0.899
4.73633	0.899
4.77739	0.899
4.81844	0.899
4.85949	0.899
4.90054	0.899
4.94159	0.899
4.98264	0.899
5.02369	0.899
5.06474	0.897
5.1058	0.889
5.14685	0.883
5.1879	0.88
5.22895	0.875
5.27	0.873
5.31105	0.873
5.3521	0.877
5.39316	0.878
5.43421	0.877
5.47526	0.873
5.51631	0.861
5.55736	0.848
5.59841	0.807
5.63946	0.781
5.68051	0.742
5.72157	0.604
5.76262	0.365
5.80367	0.18
5.84472	0.174
5.88577	0.266
5.92682	0.291
5.96787	0.199
6.00892	0.145
6.04998	0.221
6.09103	0.32
6.13208	0.32
6.17313	0.346
6.21418	0.37
6.25523	0.474
6.29628	0.602
6.33734	0.675
6.37839	0.715
6.41944	0.735
6.46049	0.75
6.50154	0.766
6.54259	0.769
6.58364	0.773
6.62469	0.771
6.66575	0.755
6.7068	0.653
6.74785	0.566
6.7889	0.486
6.82995	0.498
6.871	0.448
6.91205	0.467
6.9531	0.564
6.99416	0.6
7.03521	0.571
7.07626	0.424
7.11731	0.3
7.15836	0.346
7.19941	0.312
7.24046	0.25
7.28152	0.24
7.32257	0.366
7.36362	0.498
7.40467	0.508
7.44572	0.375
7.48677	0.245
7.52782	0.339
7.56887	0.464
7.60993	0.472
7.65098	0.375
7.69203	0.307
7.73308	0.286
7.77413	0.233
7.81518	0.196
7.85623	0.199
7.89728	0.228
7.93834	0.296
7.97939	0.358
8.02044	0.402
8.06149	0.378
8.10254	0.29
8.14359	0.199
8.18464	0.153
8.22569	0.15
8.26675	0.174
8.3078	0.206
8.34885	0.286
8.3899	0.324
8.43095	0.269
8.472	0.194
8.51305	0.168
8.55411	0.168
8.59516	0.167
8.63621	0.16
8.67726	0.189
8.71831	0.267
8.75936	0.336
8.80041	0.366
8.84146	0.37
8.88252	0.36
8.92357	0.349
8.96462	0.36
9.00567	0.363
9.04672	0.336
9.08777	0.254
9.12882	0.226
9.16987	0.215
9.21093	0.22
9.25198	0.29
9.29303	0.394
9.33408	0.488
9.37513	0.568
9.41618	0.614
9.45723	0.627
9.49829	0.621
9.53934	0.558
9.58039	0.493
9.62144	0.43
9.66249	0.378
9.70354	0.346
9.74459	0.348
9.78564	0.421
9.8267	0.539
9.86775	0.604
9.9088	0.674
9.94985	0.708
9.9909	0.721
10.032	0.73
10.073	0.732
10.1141	0.73
10.1551	0.718
10.1962	0.713
10.2372	0.699
10.2783	0.686
10.3193	0.67
10.3604	0.658
10.4014	0.646
10.4425	0.638
10.4835	0.639
10.5246	0.663
10.5656	0.715
10.6067	0.747
10.6477	0.786
10.6888	0.802
10.7298	0.813
10.7709	0.825
10.8119	0.829
10.853	0.829
10.894	0.829
10.9351	0.802
10.9761	0.791
11.0172	0.786
11.0582	0.786
11.0993	0.798
11.1403	0.807
11.1814	0.819
11.2224	0.812
11.2635	0.802
11.3045	0.783
11.3456	0.783
11.3866	0.784
11.4277	0.786
11.4687	0.784
11.5098	0.762
11.5509	0.732
11.5919	0.706
11.633	0.692
11.674	0.703
11.7151	0.701
11.7561	0.679
11.7972	0.638
11.8382	0.6
11.8793	0.561
11.9203	0.537
11.9614	0.527
12.0024	0.529
12.0435	0.532
12.0845	0.534
12.1256	0.535
12.1666	0.537
12.2077	0.546
12.2487	0.559
12.2898	0.566
12.3308	0.58
12.3719	0.598
12.4129	0.617
12.454	0.633
12.495	0.65
12.5361	0.66
12.5771	0.662
12.6182	0.656
12.6592	0.639
12.7003	0.626
12.7413	0.622
12.7824	0.621
12.8234	0.617
12.8645	0.617
12.9055	0.617
12.9466	0.621
12.9876	0.629
13.0287	0.65
13.0697	0.668
13.1108	0.679
13.1519	0.687
13.1929	0.692
13.234	0.691
13.275	0.686
13.3161	0.689
13.3571	0.704
13.3982	0.728
13.4392	0.735
13.4803	0.742
13.5213	0.75
13.5624	0.757
13.6034	0.759
13.6445	0.762
13.6855	0.764
13.7266	0.766
13.7676	0.766
13.8087	0.766
13.8497	0.764
13.8908	0.766
13.9318	0.766
13.9729	0.766
14.0139	0.766
14.055	0.764
14.096	0.762
14.1371	0.759
14.1781	0.757
14.2192	0.752
14.2602	0.75
14.3013	0.745
14.3423	0.74
14.3834	0.735
14.4244	0.733
14.4655	0.732
14.5065	0.728
14.5476	0.723
14.5886	0.72
14.6297	0.718
14.6707	0.716
14.7118	0.713
14.7529	0.709
14.7939	0.708
14.835	0.704
14.876	0.701
14.9171	0.701
14.9581	0.701
14.9992	0.699
15.0402	0.689
15.0813	0.68
15.1223	0.679
15.1634	0.68
15.2044	0.682
15.2455	0.68
15.2865	0.677
15.3276	0.677
15.3686	0.674
15.4097	0.672
15.4507	0.672
15.4918	0.668
15.5328	0.667
15.5739	0.667
15.6149	0.663
15.656	0.663
15.697	0.662
15.7381	0.66
15.7791	0.662
15.8202	0.662
15.8612	0.66
15.9023	0.66
15.9433	0.658
15.9844	0.658
