Infrared Spectrum: 2-BUTANONE, (2,4-DINITROPHENYL)HYDRAZONE
Formula: C10 H12 N4 O4
CAS: 958-60-1
State: SOLID (KBr DISC) VS. KBr
Melting point: 115 C
Class: COBLENTZ III
Instrument: BECKMAN IR-4 (HYBRID PRISM-GRATING)
Sampling: TRANSMISSION
Resolution: 4
Origin: UNIVERSITY OF FLORIDA
MICROMETERS	TRANSMITTANCE
0.997	0.393
1.03396	0.4
1.07092	0.406
1.10788	0.414
1.14484	0.421
1.1818	0.432
1.21876	0.44
1.25572	0.449
1.29268	0.455
1.32964	0.463
1.3666	0.47
1.40356	0.476
1.44052	0.482
1.47748	0.49
1.51444	0.496
1.5514	0.502
1.58836	0.512
1.62532	0.52
1.66228	0.527
1.69924	0.536
1.7362	0.54
1.77316	0.545
1.81012	0.552
1.84708	0.559
1.88404	0.565
1.921	0.568
1.95796	0.57
1.99492	0.576
2.03188	0.578
2.06884	0.588
2.1058	0.593
2.14276	0.597
2.17972	0.602
2.21668	0.605
2.25364	0.609
2.2906	0.614
2.32756	0.619
2.36452	0.628
2.40148	0.634
2.43844	0.639
2.4754	0.641
2.51236	0.645
2.54932	0.649
2.58628	0.66
2.62324	0.66
2.6602	0.664
2.69716	0.663
2.73412	0.656
2.77108	0.65
2.80804	0.64
2.845	0.631
2.88196	0.626
2.91892	0.628
2.95588	0.641
2.99284	0.636
3.0298	0.483
3.06676	0.676
3.10372	0.71
3.14068	0.732
3.17764	0.742
3.2146	0.669
3.25156	0.652
3.28852	0.713
3.32548	0.702
3.36244	0.637
3.3994	0.636
3.43636	0.628
3.47332	0.636
3.51028	0.667
3.54724	0.69
3.5842	0.704
3.62116	0.712
3.65812	0.718
3.69508	0.724
3.73204	0.727
3.769	0.727
3.80596	0.728
3.84292	0.734
3.87988	0.74
3.91684	0.739
3.9538	0.737
3.99076	0.742
4.02772	0.748
4.06468	0.742
4.10164	0.741
4.1386	0.741
4.17556	0.743
4.21252	0.747
4.24948	0.756
4.28644	0.766
4.3234	0.77
4.36036	0.771
4.39732	0.77
4.43428	0.768
4.47124	0.768
4.5082	0.777
4.54516	0.779
4.58212	0.779
4.61908	0.781
4.65604	0.787
4.693	0.788
4.72996	0.791
4.76692	0.797
4.80388	0.798
4.84084	0.796
4.8778	0.798
4.91476	0.797
4.95172	0.803
4.98868	0.806
5.02564	0.804
5.0626	0.797
5.09956	0.786
5.13652	0.798
5.17348	0.807
5.21044	0.812
5.2474	0.818
5.28436	0.82
5.32132	0.824
5.35828	0.825
5.39524	0.819
5.4322	0.816
5.46916	0.812
5.50612	0.799
5.54308	0.817
5.58004	0.826
5.617	0.83
5.65396	0.826
5.69092	0.828
5.72788	0.827
5.76484	0.829
5.8018	0.83
5.83876	0.831
5.87572	0.818
5.91268	0.805
5.94964	0.799
5.9866	0.791
6.02356	0.773
6.06052	0.736
6.09748	0.647
6.13444	0.413
6.1714	0.073
6.20836	0.11
6.24532	0.278
6.28228	0.251
6.31924	0.108
6.3562	0.258
6.39316	0.432
6.43012	0.579
6.46708	0.685
6.50404	0.662
6.541	0.509
6.57796	0.322
6.61492	0.244
6.65188	0.224
6.68884	0.241
6.7258	0.323
6.76276	0.504
6.79972	0.575
6.83668	0.653
6.87364	0.614
6.9106	0.547
6.94756	0.535
6.98452	0.466
7.02148	0.329
7.05844	0.135
7.0954	0.195
7.13236	0.518
7.16932	0.68
7.20628	0.664
7.24324	0.61
7.2802	0.471
7.31716	0.338
7.35412	0.425
7.39108	0.344
7.42804	0.144
7.465	0.082
7.50196	0.055
7.53892	0.109
7.57588	0.216
7.61284	0.096
7.6498	0.058
7.68676	0.195
7.72372	0.316
7.76068	0.296
7.79764	0.235
7.8346	0.193
7.87156	0.13
7.90852	0.047
7.94548	0.034
7.98244	0.123
8.0194	0.293
8.05636	0.451
8.09332	0.494
8.13028	0.46
8.16724	0.314
8.2042	0.198
8.24116	0.293
8.27812	0.437
8.31508	0.507
8.35204	0.554
8.389	0.602
8.42596	0.629
8.46292	0.641
8.49988	0.672
8.53684	0.698
8.5738	0.715
8.61076	0.714
8.64772	0.688
8.68468	0.597
8.72164	0.433
8.7586	0.317
8.79556	0.28
8.83252	0.2
8.86948	0.216
8.90644	0.296
8.9434	0.338
8.98036	0.346
9.01732	0.353
9.05428	0.392
9.09124	0.475
9.1282	0.535
9.16516	0.568
9.20212	0.592
9.23908	0.6
9.27604	0.596
9.313	0.569
9.34996	0.509
9.38692	0.349
9.42388	0.252
9.46084	0.427
9.4978	0.519
9.53476	0.525
9.57172	0.463
9.60868	0.503
9.64564	0.569
9.6826	0.624
9.71956	0.648
9.75652	0.67
9.79348	0.691
9.83044	0.703
9.8674	0.708
9.90436	0.709
9.94132	0.71
9.97828	0.712
10.0152	0.71
10.0522	0.707
10.0892	0.699
10.1261	0.691
10.1631	0.684
10.2	0.67
10.237	0.659
10.274	0.659
10.3109	0.682
10.3479	0.707
10.3848	0.722
10.4218	0.73
10.4588	0.732
10.4957	0.736
10.5327	0.738
10.5696	0.74
10.6066	0.741
10.6436	0.74
10.6805	0.737
10.7175	0.73
10.7544	0.698
10.7914	0.601
10.8284	0.439
10.8653	0.492
10.9023	0.454
10.9392	0.478
10.9762	0.603
11.0132	0.696
11.0501	0.721
11.0871	0.73
11.124	0.736
11.161	0.74
11.198	0.741
11.2349	0.743
11.2719	0.748
11.3088	0.749
11.3458	0.75
11.3828	0.747
11.4197	0.747
11.4567	0.743
11.4936	0.74
11.5306	0.734
11.5676	0.728
11.6045	0.712
11.6415	0.702
11.6784	0.693
11.7154	0.655
11.7524	0.544
11.7893	0.468
11.8263	0.468
11.8632	0.504
11.9002	0.58
11.9372	0.646
11.9741	0.68
12.0111	0.61
12.048	0.436
12.085	0.57
12.122	0.705
12.1589	0.727
12.1959	0.737
12.2328	0.743
12.2698	0.746
12.3068	0.748
12.3437	0.748
12.3807	0.747
12.4176	0.741
12.4546	0.738
12.4916	0.729
12.5285	0.717
12.5655	0.695
12.6024	0.684
12.6394	0.685
12.6764	0.683
12.7133	0.681
12.7503	0.682
12.7872	0.686
12.8242	0.688
12.8612	0.698
12.8981	0.7
12.9351	0.699
12.972	0.691
13.009	0.68
13.046	0.665
13.0829	0.649
13.1199	0.616
13.1568	0.591
13.1938	0.647
13.2308	0.681
13.2677	0.686
13.3047	0.681
13.3416	0.665
13.3786	0.614
13.4156	0.468
13.4525	0.319
13.4895	0.322
13.5264	0.478
13.5634	0.594
13.6004	0.66
13.6373	0.689
13.6743	0.699
13.7112	0.7
13.7482	0.694
13.7852	0.667
13.8221	0.611
13.8591	0.518
13.896	0.423
13.933	0.433
13.97	0.503
14.0069	0.578
14.0439	0.634
14.0808	0.661
14.1178	0.679
14.1548	0.688
14.1917	0.691
14.2287	0.698
14.2656	0.7
14.3026	0.699
14.3396	0.698
14.3765	0.696
14.4135	0.69
14.4504	0.681
14.4874	0.669
14.5244	0.655
14.5613	0.639
14.5983	0.637
14.6352	0.641
14.6722	0.66
14.7092	0.676
14.7461	0.684
14.7831	0.687
14.82	0.687
14.857	0.687
14.894	0.686
14.9309	0.687
14.9679	0.692
15.0048	0.699
