Infrared Spectrum: Androsta-1,4-diene-16Beta-propionic acid, 17Beta-hydroxy-3-oxo-, Delta-lactone
Formula: C22 H28 O3
CAS: 95809-79-3
State: SOLUTION 7% (CHCl3 FOR 2.5-12.5 microns)
Class: COBLENTZ
Instrument: PERKIN-ELMER 21 (GRATING)
Instrument parameters: FILTER AT ABOUT 10 MICRONS
Path length: 0.01 CM
Resolution: 2
Origin: ABBOTT LABORATORIES
1/CM	TRANSMITTANCE
798	0.9238
807	0.8353
816	0.7926
825	0.9178
834	0.8737
843	0.9511
852	0.9125
861	0.9006
870	0.8728
879	0.722
888	0.5221
897	0.853
906	0.8075
915	0.85
924	0.6985
933	0.6127
942	0.7642
951	0.841
960	0.7129
969	0.861
978	0.8434
987	0.7996
996	0.8047
1005	0.7887
1014	0.558
1023	0.6491
1032	0.6487
1041	0.7755
1050	0.7825
1059	0.6175
1068	0.3408
1077	0.4949
1086	0.7187
1095	0.62
1104	0.6066
1113	0.7026
1122	0.6756
1131	0.7064
1140	0.4838
1149	0.7326
1158	0.6951
1167	0.3496
1176	0.4322
1185	0.5275
1194	0.6017
1203	0.5534
1212	0.5057
1221	0.4589
1230	0.4127
1239	0.3671
1248	0.3246
1257	0.5789
1266	0.758
1275	0.7607
1284	0.6209
1293	0.7169
1302	0.7667
1311	0.7512
1320	0.5937
1329	0.4804
1338	0.6431
1347	0.6749
1356	0.6295
1365	0.5705
1374	0.6697
1383	0.6789
1392	0.6671
1401	0.7532
1410	0.7407
1419	0.7915
1428	0.6481
1437	0.6331
1446	0.651
1455	0.7117
1464	0.8119
1473	0.8782
1482	0.9074
1491	0.9191
1500	0.9229
1509	0.9307
1518	0.9285
1527	0.9198
1536	0.9106
1545	0.8943
1554	0.8805
1563	0.8558
1572	0.8083
1581	0.7285
1590	0.559
1599	0.5301
1608	0.3558
1617	0.2821
1626	0.6185
1635	0.4778
1644	0.221
1653	0.045
1662	0.199
1671	0.6441
1680	0.6865
1689	0.5063
1698	0.3136
1707	0.1341
1716	0.0845
1725	0.1194
1734	0.392
1743	0.6719
1752	0.7668
1761	0.7952
1770	0.8461
1779	0.8711
1788	0.8805
1797	0.89
1806	0.8987
1815	0.9085
1824	0.9173
1833	0.9236
1842	0.9287
1851	0.9311
1860	0.9324
1869	0.9325
1878	0.9322
1887	0.9325
1896	0.9334
1905	0.9341
1914	0.9341
1923	0.9342
1932	0.9343
1941	0.9344
1950	0.9343
1959	0.934
1968	0.9338
1977	0.9337
1986	0.9342
1995	0.9347
2004	0.9352
2013	0.9356
2022	0.9367
2031	0.9383
2040	0.9385
2049	0.9385
2058	0.9387
2067	0.9391
2076	0.9394
2085	0.9398
2094	0.94
2103	0.9402
2112	0.9404
2121	0.9403
2130	0.94
2139	0.9397
2148	0.9394
2157	0.9389
2166	0.9381
2175	0.9372
2184	0.9365
2193	0.9356
2202	0.935
2211	0.9342
2220	0.9336
2229	0.9334
2238	0.9335
2247	0.9336
2256	0.9337
2265	0.9342
2274	0.9348
2283	0.9354
2292	0.9361
2301	0.9368
2310	0.9375
2319	0.9387
2328	0.9406
2337	0.943
2346	0.9465
2355	0.9446
2364	0.9398
2373	0.9312
2382	0.9165
2391	0.9059
2400	0.8991
2409	0.8951
2418	0.8944
2427	0.8981
2436	0.9062
2445	0.9135
2454	0.9189
2463	0.9226
2472	0.9244
2481	0.9262
2490	0.9273
2499	0.9285
2508	0.929
2517	0.9291
2526	0.9292
2535	0.9289
2544	0.9284
2553	0.9279
2562	0.9274
2571	0.9265
2580	0.9254
2589	0.9243
2598	0.9233
2607	0.9223
2616	0.9213
2625	0.9204
2634	0.9194
2643	0.9183
2652	0.9169
2661	0.9154
2670	0.9141
2679	0.9127
2688	0.9114
2697	0.91
2706	0.9087
2715	0.9068
2724	0.9038
2733	0.9002
2742	0.8946
2751	0.8802
2760	0.8635
2769	0.8426
2778	0.8062
2787	0.7354
2796	0.6638
2805	0.6299
2814	0.6272
2823	0.6243
2832	0.6186
2841	0.5857
2850	0.5448
2859	0.504
2868	0.4635
2877	0.4185
2886	0.4092
2895	0.4093
2904	0.4303
2913	0.4657
2922	0.4797
2931	0.4824
2940	0.4993
2949	0.5615
2958	0.6249
2967	0.6878
2976	0.7504
2985	0.7959
2994	0.8127
3003	0.8729
3012	0.8932
3021	0.9033
3030	0.9089
3039	0.9113
3048	0.913
3057	0.9142
3066	0.9154
3075	0.9163
3084	0.9166
3093	0.9169
3102	0.9172
3111	0.9168
3120	0.9161
3129	0.9154
3138	0.9148
3147	0.9141
3156	0.9136
3165	0.9134
3174	0.9132
3183	0.913
3192	0.9128
3201	0.9127
3210	0.9124
3219	0.9122
3228	0.912
3237	0.9118
3246	0.9115
3255	0.9112
3264	0.9109
3273	0.9106
3282	0.9103
3291	0.9106
3300	0.9111
3309	0.9116
3318	0.9122
3327	0.9127
3336	0.9132
3345	0.9137
3354	0.9145
3363	0.9153
3372	0.9161
3381	0.9169
3390	0.9177
3399	0.9184
3408	0.9192
3417	0.92
3426	0.9208
3435	0.9216
3444	0.9226
3453	0.9236
3462	0.9246
3471	0.9256
3480	0.9265
3489	0.9264
3498	0.9261
3507	0.9257
3516	0.9255
3525	0.9252
3534	0.9248
3543	0.9246
3552	0.9242
3561	0.924
3570	0.9237
3579	0.9234
3588	0.9231
3597	0.9237
3606	0.9252
3615	0.9263
3624	0.9267
3633	0.9271
3642	0.9275
3651	0.9276
3660	0.9276
3669	0.9275
3678	0.9274
3687	0.9273
3696	0.9273
3705	0.9272
3714	0.9271
3723	0.9271
3732	0.927
3741	0.9269
3750	0.9268
3759	0.9268
3768	0.9267
3777	0.9266
3786	0.9266
3795	0.9265
3804	0.9265
3813	0.9262
3822	0.9261
3831	0.9259
3840	0.9257
3849	0.9255
3858	0.9253
3867	0.9251
3876	0.9249
3885	0.9247
3894	0.9245
3903	0.9241
3912	0.9237
3921	0.9232
3930	0.9228
3939	0.9224
3948	0.922
3957	0.9217
3966	0.9213
3975	0.9209
3984	0.9207
3993	0.9203
