Infrared Spectrum: 3'-(3-METHOXY-1,3,5(10)-ESTRATRIEN-16Beta-YL)PROPIONO-1',17Beta-LACTONE
Formula: C22 H28 O3
CAS: 95809-84-0
State: SOLUTION (7% CHCl3 FOR 2.5-12.5 MICRON) VS SOLVENT
Class: COBLENTZ
Instrument: PERKIN-ELMER 21 (GRATING)
Instrument parameters: FILTER AT ABOUT 10 MICRONS
Path length: 0.01 CM
Resolution: 2
Origin: ABBOTT LABORATORIES
1/CM	TRANSMITTANCE
799	1.0037
808	0.9203
817	0.7861
826	0.8473
835	0.8447
844	0.8203
853	0.7487
862	0.813
871	0.7371
880	0.8022
889	0.7988
898	0.7453
907	0.8312
916	0.8756
925	0.8783
934	0.7362
943	0.7923
952	0.8516
961	0.8145
970	0.7567
979	0.8285
988	0.8109
997	0.7763
1006	0.7553
1015	0.5631
1024	0.4113
1033	0.4208
1042	0.6127
1051	0.6077
1060	0.5019
1069	0.4888
1078	0.3974
1087	0.7008
1096	0.5909
1105	0.6323
1114	0.6199
1123	0.6132
1132	0.6044
1141	0.5395
1150	0.6426
1159	0.5999
1168	0.4334
1177	0.282
1186	0.5728
1195	0.5658
1204	0.4225
1213	0.363
1222	0.3045
1231	0.2467
1240	0.1898
1249	0.146
1258	0.3395
1267	0.6185
1276	0.5019
1285	0.6044
1294	0.708
1303	0.6865
1312	0.6182
1321	0.6872
1330	0.4996
1339	0.49
1348	0.6709
1357	0.6764
1366	0.6049
1375	0.7331
1384	0.6815
1393	0.7402
1402	0.8102
1411	0.7842
1420	0.6749
1429	0.7022
1438	0.7208
1447	0.6219
1456	0.574
1465	0.5339
1474	0.7691
1483	0.7248
1492	0.4289
1501	0.3411
1510	0.7254
1519	0.8552
1528	0.9088
1537	0.9052
1546	0.8955
1555	0.8812
1564	0.8518
1573	0.747
1582	0.781
1591	0.832
1600	0.7877
1609	0.507
1618	0.7099
1627	0.8303
1636	0.8699
1645	0.8701
1654	0.8703
1663	0.8654
1672	0.8368
1681	0.8126
1690	0.7621
1699	0.6394
1708	0.3488
1717	0.0827
1726	0.0715
1735	0.177
1744	0.399
1753	0.6375
1762	0.6871
1771	0.7401
1780	0.8013
1789	0.8542
1798	0.8681
1807	0.8728
1816	0.8801
1825	0.8857
1834	0.8888
1843	0.8895
1852	0.8894
1861	0.891
1870	0.8947
1879	0.8967
1888	0.8972
1897	0.898
1906	0.8986
1915	0.8992
1924	0.8993
1933	0.8993
1942	0.9002
1951	0.9007
1960	0.901
1969	0.9006
1978	0.9
1987	0.8991
1996	0.8982
2005	0.8974
2014	0.8966
2023	0.8965
2032	0.8965
2041	0.8966
2050	0.8968
2059	0.8972
2068	0.8976
2077	0.8978
2086	0.8979
2095	0.8984
2104	0.8992
2113	0.9039
2122	0.9037
2131	0.9
2140	0.8979
2149	0.898
2158	0.8984
2167	0.8989
2176	0.8996
2185	0.9011
2194	0.9044
2203	0.9077
2212	0.9092
2221	0.9093
2230	0.9093
2239	0.909
2248	0.909
2257	0.9093
2266	0.9096
2275	0.9099
2284	0.9101
2293	0.9102
2302	0.9105
2311	0.9131
2320	0.9173
2329	0.9204
2338	0.9216
2347	0.9217
2356	0.9215
2365	0.9212
2374	0.9204
2383	0.9195
2392	0.9183
2401	0.913
2410	0.9031
2419	0.8984
2428	0.8963
2437	0.8955
2446	0.8948
2455	0.8944
2464	0.8939
2473	0.8935
2482	0.8932
2491	0.8929
2500	0.8926
2509	0.8923
2518	0.8921
2527	0.8919
2536	0.8916
2545	0.8911
2554	0.8905
2563	0.89
2572	0.8895
2581	0.8884
2590	0.8875
2599	0.8866
2608	0.8857
2617	0.8855
2626	0.8856
2635	0.8857
2644	0.8863
2653	0.8871
2662	0.8872
2671	0.887
2680	0.8863
2689	0.8854
2698	0.8843
2707	0.8828
2716	0.8808
2725	0.8784
2734	0.8755
2743	0.8726
2752	0.8687
2761	0.8647
2770	0.8595
2779	0.8541
2788	0.845
2797	0.8336
2806	0.8143
2815	0.7692
2824	0.6982
2833	0.6309
2842	0.5968
2851	0.584
2860	0.5775
2869	0.5701
2878	0.5596
2887	0.5459
2896	0.5225
2905	0.4564
2914	0.3882
2923	0.3691
2932	0.3692
2941	0.3842
2950	0.4391
2959	0.494
2968	0.5486
2977	0.6028
2986	0.628
2995	0.6332
3004	0.6419
3013	0.6896
3022	0.7538
3031	0.8476
3040	0.8691
3049	0.8796
3058	0.8868
3067	0.891
3076	0.8929
3085	0.8937
3094	0.8941
3103	0.8943
3112	0.8945
3121	0.8946
3130	0.8947
3139	0.8949
3148	0.8955
3157	0.8972
3166	0.9
3175	0.9031
3184	0.9061
3193	0.9088
3202	0.9095
3211	0.9103
3220	0.9103
3229	0.9104
3238	0.9104
3247	0.9102
3256	0.9101
3265	0.91
3274	0.9099
3283	0.9098
3292	0.9097
3301	0.9096
3310	0.9095
3319	0.9094
3328	0.9093
3337	0.9091
3346	0.9089
3355	0.9087
3364	0.9084
3373	0.9082
3382	0.908
3391	0.9077
3400	0.9074
3409	0.907
3418	0.9066
3427	0.9063
3436	0.9061
3445	0.9061
3454	0.9062
3463	0.9062
3472	0.9063
3481	0.9064
3490	0.9065
3499	0.9067
3508	0.9068
3517	0.9069
3526	0.907
3535	0.9072
3544	0.9073
3553	0.9075
3562	0.9076
3571	0.9077
3580	0.9079
3589	0.9079
3598	0.9079
3607	0.908
3616	0.908
3625	0.9081
3634	0.9081
3643	0.9081
3652	0.9082
3661	0.9081
3670	0.9081
3679	0.908
3688	0.9079
3697	0.9079
3706	0.9078
3715	0.9077
3724	0.9077
3733	0.9076
3742	0.9076
3751	0.9075
3760	0.9073
3769	0.9072
3778	0.9071
3787	0.907
3796	0.9069
3805	0.9068
3814	0.9067
3823	0.9067
3832	0.9068
3841	0.9068
3850	0.9068
3859	0.9068
3868	0.9066
3877	0.9063
3886	0.9061
3895	0.9058
3904	0.9056
3913	0.9053
3922	0.905
3931	0.9048
3940	0.9046
3949	0.9043
3958	0.9041
3967	0.9038
3976	0.9036
3985	0.9033
3994	0.9031
