Infrared Spectrum: 4-Morpholinecarbodithioic acid, ethylene diester
Formula: C12 H20 N2 O2 S4
CAS: 95844-90-9
State: SOLID (0.9 mg / 650 mg KBr DISC)
Class: COBLENTZ III
Instrument: PERKIN-ELMER 21 (GRATING)
Instrument parameters: FILTER CHANGE ABOUT 1020 CM^-^1
Sampling: TRANSMISSION
Resolution: 2
Origin: SOUTHERN RESEARCH INSTITUTE
1/CM	TRANSMITTANCE
602.03	0.6979
611.08	0.6874
620.13	0.6899
629.181	0.7192
638.231	0.7523
647.281	0.7548
656.331	0.7474
665.382	0.739
674.432	0.7328
683.482	0.7687
692.532	0.7724
701.583	0.7551
710.633	0.701
719.683	0.6267
728.733	0.7985
737.783	0.8318
746.834	0.8307
755.884	0.8275
764.934	0.8222
773.984	0.8164
783.035	0.8086
792.085	0.796
801.135	0.7741
810.185	0.7378
819.236	0.6894
828.286	0.7826
837.336	0.746
846.386	0.7115
855.437	0.5965
864.487	0.5961
873.537	0.7851
882.587	0.7721
891.637	0.7384
900.688	0.6537
909.738	0.7333
918.788	0.7337
927.838	0.7223
936.889	0.7036
945.939	0.6588
954.989	0.6063
964.039	0.5415
973.09	0.4666
982.14	0.2762
991.19	0.2018
1000.24	0.4029
1009.29	0.4938
1018.34	0.4659
1027.39	0.2505
1036.44	0.4662
1045.49	0.7593
1054.54	0.6724
1063.59	0.5601
1072.64	0.734
1081.69	0.7114
1090.74	0.6485
1099.79	0.4115
1108.84	0.1764
1117.89	0.3128
1126.94	0.7247
1135.99	0.7258
1145.04	0.6016
1154.09	0.7968
1163.14	0.7331
1172.19	0.5879
1181.24	0.6123
1190.3	0.6413
1199.35	0.5938
1208.4	0.218
1217.45	0.4174
1226.5	0.3063
1235.55	0.2527
1244.6	0.6917
1253.65	0.5555
1262.7	0.1574
1271.75	0.3908
1280.8	0.7728
1289.85	0.7256
1298.9	0.4726
1307.95	0.8239
1317	0.8096
1326.05	0.7983
1335.1	0.7884
1344.15	0.7317
1353.2	0.7061
1362.25	0.6874
1371.3	0.6093
1380.35	0.3352
1389.4	0.3315
1398.45	0.5795
1407.5	0.4623
1416.55	0.3118
1425.6	0.1284
1434.65	0.2729
1443.7	0.5072
1452.75	0.4034
1461.8	0.2568
1470.85	0.134
1479.9	0.3045
1488.95	0.6509
1498	0.7996
1507.05	0.8897
1516.1	0.9058
1525.15	0.9099
1534.2	0.911
1543.25	0.9112
1552.3	0.9102
1561.35	0.9089
1570.4	0.9076
1579.46	0.9054
1588.51	0.8886
1597.56	0.8692
1606.61	0.8499
1615.66	0.8363
1624.71	0.8192
1633.76	0.8193
1642.81	0.8272
1651.86	0.838
1660.91	0.8405
1669.96	0.8407
1679.01	0.8401
1688.06	0.8377
1697.11	0.8385
1706.16	0.8375
1715.21	0.8391
1724.26	0.8305
1733.31	0.8308
1742.36	0.8304
1751.41	0.8291
1760.46	0.8276
1769.51	0.8261
1778.56	0.8247
1787.61	0.8235
1796.66	0.8213
1805.71	0.8188
1814.76	0.8161
1823.81	0.8147
1832.86	0.8099
1841.91	0.8064
1850.96	0.8047
1860.01	0.8032
1869.06	0.8008
1878.11	0.7935
1887.16	0.79
1896.21	0.7882
1905.26	0.7873
1914.31	0.7854
1923.36	0.7826
1932.41	0.7778
1941.46	0.7713
1950.51	0.7653
1959.56	0.7603
1968.62	0.7602
1977.67	0.764
1986.72	0.7673
1995.77	0.7665
2004.82	0.7604
2013.87	0.7555
2022.92	0.7561
2031.97	0.7558
2041.02	0.7534
2050.07	0.7497
2059.12	0.7467
2068.17	0.7442
2077.22	0.7431
2086.27	0.7335
2095.32	0.7293
2104.37	0.7284
2113.42	0.7283
2122.47	0.7279
2131.52	0.7272
2140.57	0.7267
2149.62	0.7254
2158.67	0.7236
2167.72	0.7215
2176.77	0.7193
2185.82	0.7173
2194.87	0.7156
2203.92	0.7138
2212.97	0.7116
2222.02	0.7093
2231.07	0.7064
2240.12	0.7035
2249.17	0.7
2258.22	0.6964
2267.27	0.6931
2276.32	0.6899
2285.37	0.6876
2294.42	0.6868
2303.47	0.6873
2312.52	0.6878
2321.57	0.6877
2330.62	0.6863
2339.67	0.6843
2348.72	0.6833
2357.78	0.6832
2366.83	0.6772
2375.88	0.6726
2384.93	0.6699
2393.98	0.666
2403.03	0.6621
2412.08	0.6583
2421.13	0.6544
2430.18	0.6506
2439.23	0.6477
2448.28	0.6455
2457.33	0.6427
2466.38	0.6387
2475.43	0.6299
2484.48	0.6215
2493.53	0.6157
2502.58	0.6129
2511.63	0.61
2520.68	0.6084
2529.73	0.607
2538.78	0.606
2547.83	0.6044
2556.88	0.6025
2565.93	0.6011
2574.98	0.598
2584.03	0.5934
2593.08	0.589
2602.13	0.5853
2611.18	0.5835
2620.23	0.5823
2629.28	0.5799
2638.33	0.5775
2647.38	0.5747
2656.43	0.5719
2665.48	0.5709
2674.53	0.5704
2683.58	0.5697
2692.63	0.5702
2701.68	0.5708
2710.73	0.5716
2719.78	0.5642
2728.83	0.5604
2737.88	0.5592
2746.94	0.5576
2755.99	0.5529
2765.04	0.5412
2774.09	0.5307
2783.14	0.519
2792.19	0.5045
2801.24	0.4863
2810.29	0.4672
2819.34	0.441
2828.39	0.4254
2837.44	0.4279
2846.49	0.45
2855.54	0.4678
2864.59	0.464
2873.64	0.4485
2882.69	0.4433
2891.74	0.4442
2900.79	0.4478
2909.84	0.4588
2918.89	0.4616
2927.94	0.4524
2936.99	0.454
2946.04	0.4689
2955.09	0.5119
2964.14	0.5391
2973.19	0.5582
2982.24	0.5648
2991.29	0.5664
3000.34	0.5654
3009.39	0.5633
3018.44	0.562
3027.49	0.5599
3036.54	0.5572
3045.59	0.5533
3054.64	0.5479
3063.69	0.543
3072.74	0.5382
3081.79	0.5356
3090.84	0.5377
3099.89	0.53
3108.94	0.5262
3117.99	0.5237
3127.04	0.5219
3136.1	0.516
3145.15	0.5072
3154.2	0.4983
3163.25	0.4914
3172.3	0.4866
3181.35	0.4829
3190.4	0.4797
3199.45	0.4766
3208.5	0.4741
3217.55	0.4715
3226.6	0.4689
3235.65	0.4661
3244.7	0.462
3253.75	0.4567
3262.8	0.4541
3271.85	0.4517
3280.9	0.4488
3289.95	0.4457
3299	0.4427
3308.05	0.438
3317.1	0.4324
3326.15	0.4257
3335.2	0.4166
3344.25	0.4074
3353.3	0.3988
3362.35	0.3923
3371.4	0.3841
3380.45	0.3757
3389.5	0.3725
3398.55	0.3722
3407.6	0.3686
3416.65	0.3654
3425.7	0.3658
3434.75	0.3664
3443.8	0.367
3452.85	0.3686
3461.9	0.3706
3470.95	0.374
3480	0.3772
3489.05	0.3812
3498.1	0.3856
3507.15	0.3903
3516.2	0.3952
3525.26	0.4003
3534.31	0.4045
3543.36	0.4079
3552.41	0.4114
3561.46	0.4181
3570.51	0.4221
3579.56	0.4241
3588.61	0.4319
3597.66	0.4355
3606.71	0.4382
3615.76	0.4405
3624.81	0.442
3633.86	0.4432
3642.91	0.4434
3651.96	0.4437
3661.01	0.4444
3670.06	0.4448
3679.11	0.4449
3688.16	0.4443
3697.21	0.4437
3706.26	0.4427
3715.31	0.4402
3724.36	0.4359
3733.41	0.4371
3742.46	0.4382
3751.51	0.4385
3760.56	0.4393
3769.61	0.439
3778.66	0.4379
3787.71	0.4353
3796.76	0.4306
3805.81	0.4272
3814.86	0.4259
3823.91	0.4254
3832.96	0.4252
3842.01	0.4261
3851.06	0.4204
3860.11	0.4186
3869.16	0.4192
3878.21	0.4197
3887.26	0.4195
3896.31	0.4194
3905.36	0.4196
3914.42	0.4201
3923.47	0.4209
3932.52	0.4211
3941.57	0.4186
3950.62	0.4134
3959.67	0.4094
3968.72	0.4077
3977.77	0.4078
3986.82	0.4083
3995.87	0.4087
4004.92	0.4091
4013.97	0.4096
