Infrared Spectrum: PHOSPHORAMIDOUS ACID, 2,4-XYLYL-, DIETHYL ESTER
Formula: C12 H20 N O2 P
CAS: 95845-11-7
State: LIQUID
Class: COBLENTZ
Instrument: PERKIN-ELMER
Sampling: TRANSMISSION
Path length: 0.0024 CM
Resolution: 4
Origin: STANDARD OIL OF OHIO
MICROMETERS	TRANSMITTANCE
2.034	0.983
2.06771	0.981
2.10142	0.977
2.13514	0.974
2.16885	0.971
2.20256	0.976
2.23627	0.969
2.26998	0.926
2.3037	0.918
2.33741	0.93
2.37112	0.949
2.40483	0.952
2.43854	0.943
2.47226	0.943
2.50597	0.949
2.53968	0.952
2.57339	0.959
2.6071	0.966
2.64082	0.967
2.67453	0.972
2.70824	0.976
2.74195	0.979
2.77566	0.981
2.80938	0.979
2.84309	0.967
2.8768	0.933
2.91051	0.616
2.94422	0.611
2.97794	0.728
3.01165	0.811
3.04536	0.901
3.07907	0.92
3.11278	0.926
3.1465	0.93
3.18021	0.916
3.21392	0.874
3.24763	0.709
3.28134	0.497
3.31506	0.259
3.34877	0.108
3.38248	0.152
3.41619	0.147
3.4499	0.156
3.48362	0.4
3.51733	0.646
3.55104	0.797
3.58475	0.874
3.61846	0.882
3.65218	0.845
3.68589	0.884
3.7196	0.933
3.75331	0.945
3.78702	0.949
3.82074	0.949
3.85445	0.95
3.88816	0.945
3.92187	0.942
3.95558	0.95
3.9893	0.955
4.02301	0.95
4.05672	0.95
4.09043	0.95
4.12414	0.95
4.15786	0.947
4.19157	0.95
4.22528	0.954
4.25899	0.96
4.2927	0.964
4.32642	0.962
4.36013	0.96
4.39384	0.962
4.42755	0.966
4.46127	0.966
4.49498	0.962
4.52869	0.962
4.5624	0.964
4.59611	0.964
4.62983	0.96
4.66354	0.96
4.69725	0.96
4.73096	0.959
4.76467	0.952
4.79839	0.949
4.8321	0.947
4.86581	0.95
4.89952	0.959
4.93323	0.962
4.96695	0.96
5.00066	0.954
5.03437	0.949
5.06808	0.935
5.10179	0.928
5.13551	0.926
5.16922	0.933
5.20293	0.94
5.23664	0.94
5.27035	0.933
5.30407	0.915
5.33778	0.908
5.37149	0.911
5.4052	0.921
5.43891	0.926
5.47263	0.92
5.50634	0.915
5.54005	0.913
5.57376	0.91
5.60747	0.901
5.64119	0.889
5.6749	0.872
5.70861	0.857
5.74232	0.853
5.77603	0.867
5.80975	0.884
5.84346	0.891
5.87717	0.893
5.91088	0.884
5.94459	0.872
5.97831	0.852
6.01202	0.831
6.04573	0.814
6.07944	0.76
6.11315	0.577
6.14687	0.392
6.18058	0.325
6.21429	0.565
6.248	0.594
6.28171	0.47
6.31543	0.351
6.34914	0.616
6.38285	0.701
6.41656	0.728
6.45027	0.719
6.48399	0.685
6.5177	0.502
6.55141	0.325
6.58512	0.066
6.61883	0.015
6.65255	0.069
6.68626	0.212
6.71997	0.305
6.75368	0.28
6.78739	0.29
6.82111	0.305
6.85482	0.298
6.88853	0.246
6.92224	0.196
6.95595	0.293
6.98967	0.398
7.02338	0.451
7.05709	0.485
7.0908	0.533
7.12451	0.502
7.15823	0.346
7.19194	0.129
7.22565	0.103
7.25936	0.196
7.29307	0.269
7.32679	0.207
7.3605	0.112
7.39421	0.074
7.42792	0.196
7.46163	0.365
7.49535	0.497
7.52906	0.64
7.56277	0.675
7.59648	0.679
7.63019	0.638
7.66391	0.495
7.69762	0.312
7.73133	0.106
7.76504	0.032
7.79875	0.04
7.83247	0.129
7.86618	0.229
7.89989	0.234
7.9336	0.252
7.96731	0.375
8.00103	0.47
8.03474	0.607
8.06845	0.66
8.10216	0.691
8.13587	0.709
8.16959	0.726
8.2033	0.716
8.23701	0.607
8.27072	0.587
8.30443	0.614
8.33815	0.701
8.37186	0.758
8.40557	0.769
8.43928	0.762
8.47299	0.733
8.50671	0.682
8.54042	0.575
8.57413	0.438
8.60784	0.269
8.64155	0.271
8.67527	0.348
8.70898	0.456
8.74269	0.567
8.7764	0.602
8.81011	0.611
8.84383	0.59
8.87754	0.524
8.91125	0.429
8.94496	0.337
8.97867	0.324
9.01239	0.308
9.0461	0.23
9.07981	0.137
9.11352	0.071
9.14723	0.079
9.18095	0.151
9.21466	0.235
9.24837	0.252
9.28208	0.229
9.3158	0.186
9.34951	0.13
9.38322	0.069
9.41693	0.013
9.45064	0.005
9.48436	0.003
9.51807	0.003
9.55178	0.001
9.58549	0.001
9.6192	0.001
9.65292	0.001
9.68663	0.001
9.72034	0.001
9.75405	0.003
9.78776	0.003
9.82148	0.018
9.85519	0.066
9.8889	0.135
9.92261	0.186
9.95632	0.195
9.99004	0.176
10.0237	0.256
10.0575	0.363
10.0912	0.432
10.1249	0.461
10.1586	0.47
10.1923	0.485
10.226	0.526
10.2597	0.546
10.2934	0.55
10.3272	0.544
10.3609	0.529
10.3946	0.5
10.4283	0.47
10.462	0.421
10.4957	0.351
10.5294	0.269
10.5631	0.193
10.5969	0.12
10.6306	0.057
10.6643	0.035
10.698	0.013
10.7317	0.008
10.7654	0.005
10.7991	0.003
10.8328	0.003
10.8665	0.003
10.9003	0.003
10.934	0.003
10.9677	0.003
11.0014	0.005
11.0351	0.01
11.0688	0.015
11.1025	0.032
11.1362	0.056
11.17	0.074
11.2037	0.081
11.2374	0.078
11.2711	0.069
11.3048	0.061
11.3385	0.049
11.3722	0.04
11.4059	0.032
11.4397	0.023
11.4734	0.02
11.5071	0.02
11.5408	0.02
11.5745	0.025
11.6082	0.04
11.6419	0.073
11.6756	0.103
11.7093	0.139
11.7431	0.157
11.7768	0.185
11.8105	0.225
11.8442	0.269
11.8779	0.305
11.9116	0.349
11.9453	0.373
11.979	0.4
12.0128	0.414
12.0465	0.414
12.0802	0.404
12.1139	0.359
12.1476	0.312
12.1813	0.261
12.215	0.215
12.2487	0.179
12.2825	0.154
12.3162	0.14
12.3499	0.139
12.3836	0.142
12.4173	0.152
12.451	0.171
12.4847	0.186
12.5184	0.193
12.5521	0.196
12.5859	0.203
12.6196	0.213
12.6533	0.22
12.687	0.222
12.7207	0.22
12.7544	0.213
12.7881	0.208
12.8218	0.205
12.8556	0.212
12.8893	0.23
12.923	0.249
12.9567	0.256
12.9904	0.263
13.0241	0.261
13.0578	0.258
13.0915	0.251
13.1253	0.229
13.159	0.21
13.1927	0.188
13.2264	0.164
13.2601	0.14
13.2938	0.123
13.3275	0.112
13.3612	0.093
13.3949	0.073
13.4287	0.062
13.4624	0.052
13.4961	0.045
13.5298	0.037
13.5635	0.03
13.5972	0.023
13.6309	0.022
13.6646	0.022
13.6984	0.022
13.7321	0.022
13.7658	0.027
13.7995	0.028
13.8332	0.032
13.8669	0.037
13.9006	0.049
13.9343	0.059
13.9681	0.066
14.0018	0.073
14.0355	0.079
14.0692	0.089
14.1029	0.103
14.1366	0.123
14.1703	0.135
14.204	0.152
14.2377	0.183
14.2715	0.225
14.3052	0.261
14.3389	0.3
14.3726	0.337
14.4063	0.378
14.44	0.412
14.4737	0.439
14.5074	0.47
14.5412	0.495
14.5749	0.526
14.6086	0.551
14.6423	0.565
14.676	0.582
14.7097	0.601
14.7434	0.612
14.7771	0.626
14.8109	0.633
14.8446	0.641
14.8783	0.651
14.912	0.655
14.9457	0.66
14.9794	0.66
15.0131	0.667
15.0468	0.672
15.0805	0.674
15.1143	0.675
15.148	0.679
15.1817	0.679
15.2154	0.68
15.2491	0.682
15.2828	0.682
15.3165	0.682
15.3502	0.682
15.384	0.684
