Infrared Spectrum: Alpha,Alpha'-DIACETYL-N,N'-DIBENZYL-GLUTARAMIDE
Formula: C23 H26 N2 O4
CAS: 95873-08-8
State: SOLID (KBr PRESSING)
Melting point: 170-171 C
Class: COBLENTZ
Instrument: Not specified, most likely a prism, grating, or hybrid spectrometer.
Sampling: TRANSMISSION
Resolution: 4
Origin: EASTMAN KODAK COMPANY, RESEARCH LABORATORIES, ROCHESTER, N.Y.
MICROMETERS	TRANSMITTANCE
2.013	0.818
2.05294	0.818
2.09289	0.82
2.13283	0.821
2.17277	0.823
2.21272	0.821
2.25266	0.825
2.2926	0.831
2.33255	0.833
2.37249	0.834
2.41243	0.834
2.45238	0.834
2.49232	0.838
2.53226	0.839
2.57221	0.839
2.61215	0.841
2.65209	0.844
2.69204	0.853
2.73198	0.841
2.77192	0.81
2.81187	0.77
2.85181	0.735
2.89175	0.699
2.9317	0.676
2.97164	0.608
3.01158	0.381
3.05152	0.191
3.09147	0.366
3.13141	0.595
3.17135	0.707
3.2113	0.752
3.25124	0.661
3.29118	0.628
3.33113	0.727
3.37107	0.752
3.41101	0.714
3.45096	0.755
3.4909	0.783
3.53084	0.811
3.57079	0.823
3.61073	0.826
3.65067	0.848
3.69062	0.856
3.73056	0.859
3.7705	0.864
3.81045	0.871
3.85039	0.876
3.89033	0.876
3.93028	0.881
3.97022	0.882
4.01016	0.886
4.05011	0.891
4.09005	0.896
4.12999	0.899
4.16994	0.9
4.20988	0.902
4.24982	0.907
4.28977	0.91
4.32971	0.912
4.36965	0.907
4.4096	0.897
4.44954	0.902
4.48948	0.9
4.52943	0.9
4.56937	0.9
4.60931	0.9
4.64926	0.902
4.6892	0.902
4.72914	0.899
4.76909	0.896
4.80903	0.899
4.84897	0.9
4.88892	0.905
4.92886	0.905
4.9688	0.905
5.00875	0.902
5.04869	0.9
5.08863	0.894
5.12857	0.882
5.16852	0.884
5.20846	0.897
5.2484	0.899
5.28835	0.891
5.32829	0.881
5.36823	0.876
5.40818	0.881
5.44812	0.879
5.48806	0.876
5.52801	0.854
5.56795	0.854
5.60789	0.853
5.64784	0.834
5.68778	0.801
5.72772	0.75
5.76767	0.633
5.80761	0.292
5.84755	0.057
5.8875	0.409
5.92744	0.589
5.96738	0.602
6.00733	0.468
6.04727	0.207
6.08721	0.12
6.12716	0.095
6.1671	0.397
6.20704	0.541
6.24699	0.582
6.28693	0.646
6.32687	0.617
6.36682	0.533
6.40676	0.372
6.4467	0.242
6.48665	0.188
6.52659	0.217
6.56653	0.295
6.60648	0.397
6.64642	0.468
6.68636	0.478
6.72631	0.523
6.76625	0.633
6.80619	0.661
6.84614	0.577
6.88608	0.498
6.92602	0.542
6.96597	0.528
7.00591	0.445
7.04585	0.475
7.0858	0.537
7.12574	0.607
7.16568	0.643
7.20562	0.666
7.24557	0.645
7.28551	0.597
7.32545	0.466
7.3654	0.366
7.40534	0.4
7.44528	0.523
7.48523	0.562
7.52517	0.602
7.56511	0.608
7.60506	0.592
7.645	0.552
7.68494	0.481
7.72489	0.435
7.76483	0.432
7.80477	0.48
7.84472	0.552
7.88466	0.599
7.9246	0.612
7.96455	0.595
8.00449	0.554
8.04443	0.468
8.08438	0.448
8.12432	0.498
8.16426	0.531
8.20421	0.597
8.24415	0.668
8.28409	0.693
8.32404	0.721
8.36398	0.735
8.40392	0.755
8.44387	0.74
8.48381	0.711
8.52375	0.655
8.5637	0.562
8.60364	0.552
8.64358	0.584
8.68353	0.509
8.72347	0.575
8.76341	0.707
8.80336	0.762
8.8433	0.787
8.88324	0.805
8.92319	0.821
8.96313	0.825
9.00307	0.823
9.04302	0.805
9.08296	0.8
9.1229	0.811
9.16285	0.816
9.20279	0.793
9.24273	0.701
9.28267	0.716
9.32262	0.78
9.36256	0.785
9.4025	0.734
9.44245	0.714
9.48239	0.731
9.52233	0.754
9.56228	0.765
9.60222	0.777
9.64216	0.755
9.68211	0.732
9.72205	0.683
9.76199	0.727
9.80194	0.737
9.84188	0.721
9.88182	0.726
9.92177	0.76
9.96171	0.78
10.0017	0.788
10.0416	0.803
10.0815	0.811
10.1215	0.811
10.1614	0.811
10.2014	0.797
10.2413	0.777
10.2813	0.768
10.3212	0.77
10.3611	0.772
10.4011	0.78
10.441	0.792
10.481	0.803
10.5209	0.803
10.5609	0.8
10.6008	0.79
10.6407	0.792
10.6807	0.805
10.7206	0.826
10.7606	0.841
10.8005	0.849
10.8405	0.851
10.8804	0.849
10.9203	0.843
10.9603	0.841
11.0002	0.841
11.0402	0.841
11.0801	0.841
11.1201	0.843
11.16	0.843
11.2	0.843
11.2399	0.858
11.2798	0.858
11.3198	0.864
11.3597	0.863
11.3997	0.864
11.4396	0.866
11.4796	0.867
11.5195	0.867
11.5594	0.867
11.5994	0.867
11.6393	0.866
11.6793	0.864
11.7192	0.859
11.7592	0.856
11.7991	0.856
11.839	0.856
11.879	0.856
11.9189	0.853
11.9589	0.853
11.9988	0.854
12.0388	0.853
12.0787	0.859
12.1186	0.846
12.1586	0.851
12.1985	0.846
12.2385	0.836
12.2784	0.841
12.3184	0.841
12.3583	0.838
12.3982	0.821
12.4382	0.806
12.4781	0.797
12.5181	0.801
12.558	0.821
12.598	0.831
12.6379	0.831
12.6779	0.838
12.7178	0.833
12.7577	0.831
12.7977	0.826
12.8376	0.815
12.8776	0.813
12.9175	0.801
12.9575	0.792
12.9974	0.778
13.0373	0.757
13.0773	0.702
13.1172	0.643
13.1572	0.554
13.1971	0.526
13.2371	0.496
13.277	0.493
13.3169	0.501
13.3569	0.503
13.3968	0.508
13.4368	0.509
13.4767	0.503
13.5167	0.506
13.5566	0.524
13.5965	0.562
13.6365	0.612
13.6764	0.641
13.7164	0.674
13.7563	0.696
13.7963	0.704
13.8362	0.734
13.8762	0.735
13.9161	0.737
13.956	0.737
13.996	0.735
14.0359	0.714
14.0759	0.694
14.1158	0.635
14.1558	0.564
14.1957	0.493
14.2356	0.422
14.2756	0.384
14.3155	0.354
14.3555	0.354
14.3954	0.391
14.4354	0.455
14.4753	0.526
14.5152	0.584
14.5552	0.622
14.5951	0.653
14.6351	0.673
14.675	0.676
14.715	0.681
14.7549	0.694
14.7948	0.694
14.8348	0.699
14.8747	0.704
14.9147	0.717
14.9546	0.737
14.9946	0.742
15.0345	0.732
15.0744	0.729
15.1144	0.735
15.1543	0.74
15.1943	0.747
15.2342	0.755
15.2742	0.759
15.3141	0.762
15.3541	0.765
15.394	0.772
15.4339	0.777
15.4739	0.782
15.5138	0.787
15.5538	0.788
15.5937	0.795
15.6337	0.8
15.6736	0.803
15.7135	0.811
15.7535	0.815
15.7934	0.816
15.8334	0.816
