Infrared Spectrum: Endosulfan
Formula: C 9 H 6 Cl 6 O 3 S
CAS: 959-98-8
State: gas
Instrument: HP-GC/MS/IRD
Origin: NIST Mass Spectrometry Data Center
1/CM	ABSORBANCE
550	0.0010353
562	6.38e-05
574	0.0012499
586	0.0040078
598	0.0005568
610	0.0013427
622	0.0041963
634	0.0013746
646	0.0020851
658	0.0050924
670	0.0166373
682	0.0062785
694	0.0054317
706	0.0014007
718	0.0015051
730	0.0025839
742	0.0150046
754	0.0225011
766	0.0043355
778	0.005365
790	0.0063307
802	0.0014906
814	0.0006989
826	0.0005771
838	0.00116
850	0.0039962
862	0.007047
874	0.0033495
886	0.0023142
898	0.0017951
910	0.0033321
922	0.0027927
934	0.0020648
946	0.0026651
958	0.0041818
970	0.0067947
982	0.0231014
994	0.0216195
1006	0.0224663
1018	0.0119741
1030	0.0044805
1042	0.0041296
1054	0.0061103
1066	0.006902
1078	0.0056173
1090	0.0054172
1102	0.0048923
1114	0.0014239
1126	0.0009396
1138	0.0010933
1150	0.0023838
1162	0.0050257
1174	0.0027115
1186	0.0010353
1198	0.004002
1210	0.0199288
1222	0.0030595
1234	0.0008642
1246	0.0016182
1258	0.0032799
1270	0.0049213
1282	0.0013862
1294	0.0005017
1306	0.0003393
1318	0.0002436
1330	0.0004321
1342	0.0005307
1354	0.0005162
1366	0.0005568
1378	0.0005452
1390	0.0002929
1402	0.0001653
1414	0.0001943
1426	0.0002175
1438	0.0002523
1450	0.0003335
1462	0.0007163
1474	0.0007308
1486	0.0013224
1498	0.0003915
1510	0.0002146
1522	0.0001624
1534	0.0002001
1546	0.0002175
1558	0.000261
1570	0.0005133
1582	0.0008671
1594	0.0033089
1606	0.0041557
1618	0.0005655
1630	0.0002523
1642	0.0001334
1654	0.0001363
1666	0.0001566
1678	0.0001073
1690	0.0001218
1702	8.41e-05
1714	6.09e-05
1726	8.12e-05
1738	7.54e-05
1750	5.51e-05
1762	5.8e-05
1774	9.86e-05
1786	8.41e-05
1798	6.96e-05
1810	6.67e-05
1822	7.83e-05
1834	0.0001276
1846	0.0001015
1858	0.0001044
1870	9.86e-05
1882	0.0001334
1894	0.0002059
1906	0.0001972
1918	0.0001682
1930	0.0001537
1942	0.0001682
1954	0.0001624
1966	0.0002088
1978	0.0002001
1990	0.0001479
2002	0.0001363
2014	0.0001044
2026	0.0001102
2038	0.0001131
2050	0.0001131
2062	0.0001073
2074	0.0001102
2086	9.28e-05
2098	6.96e-05
2110	6.96e-05
2122	7.54e-05
2134	0.0001218
2146	0.0001131
2158	5.51e-05
2170	8.12e-05
2182	0.000116
2194	0.0001189
2206	0.0001015
2218	9.28e-05
2230	9.86e-05
2242	0.0001247
2254	0.0001015
2266	0.0001015
2278	9.28e-05
2290	0.0001073
2302	6.09e-05
2314	0.0001015
2326	7.54e-05
2338	0.0001044
2350	0.0001073
2362	0.0001276
2374	0.000116
2386	0.0001334
2398	0.0001537
2410	0.0002842
2422	0.0001131
2434	0.0001102
2446	0.0001102
2458	9.57e-05
2470	0.000145
2482	0.0001421
2494	0.000116
2506	9.86e-05
2518	6.67e-05
2530	4.93e-05
2542	5.22e-05
2554	0.0001189
2566	8.99e-05
2578	8.7e-05
2590	6.96e-05
2602	8.41e-05
2614	9.57e-05
2626	8.12e-05
2638	9.86e-05
2650	6.67e-05
2662	0.000116
2674	9.28e-05
2686	7.25e-05
2698	9.57e-05
2710	8.7e-05
2722	0.0001218
2734	0.0001189
2746	0.0001363
2758	0.0001276
2770	0.0001479
2782	0.0001334
2794	0.0001421
2806	0.0001537
2818	0.0001914
2830	0.0001885
2842	0.0002523
2854	0.0002436
2866	0.0002349
2878	0.0002262
2890	0.0002871
2902	0.0006844
2914	0.000754
2926	0.0004031
2938	0.0006496
2950	0.0009686
2962	0.000957
2974	0.0013949
2986	0.0019546
2998	0.0008033
3010	0.000232
3022	0.0001131
3034	0.0001218
3046	8.12e-05
3058	9.86e-05
3070	9.28e-05
3082	5.8e-05
3094	8.7e-05
3106	7.83e-05
3118	8.41e-05
3130	0.0001392
3142	0.000232
3154	0.0001015
3166	5.8e-05
3178	9.57e-05
3190	0.0001276
3202	0.000116
3214	0.0001015
3226	0.0001218
3238	0.0001508
3250	0.0001827
3262	0.0001305
3274	9.57e-05
3286	8.12e-05
3298	0.0001508
3310	0.0001624
3322	0.000145
3334	0.0001334
3346	5.8e-05
3358	7.83e-05
3370	0.0001015
3382	4.06e-05
3394	8.7e-05
3406	0.000116
3418	0.0001015
3430	0.0001189
3442	8.12e-05
3454	5.8e-06
3466	0.0001334
3478	5.8e-05
3490	8.99e-05
3502	6.09e-05
3514	3.19e-05
3526	0.0001189
3538	6.09e-05
3550	6.96e-05
3562	0.0001015
3574	7.83e-05
3586	0.0001566
3598	1.45e-05
3610	8.7e-05
3622	7.83e-05
3634	0.0001015
3646	8.7e-05
3658	0.0001044
3670	0.0001247
3682	7.54e-05
3694	0.0001508
3706	8.41e-05
3718	0.000145
3730	0.0001537
3742	0.0001102
3754	4.93e-05
3766	8.12e-05
3778	5.51e-05
3790	0.0001943
3802	6.09e-05
3814	0.0001421
3826	0.0002262
3838	5.8e-05
