Infrared Spectrum: Salicylaldehyde azine
Formula: C 14 H 12 N 2 O 2
CAS: 959-36-4
State: gas
Origin: EPA-IR VAPOR PHASE LIBRARY
1/CM	ABSORBANCE
549.8	0.002159
559.445	0.003549
569.09	0.002729
578.734	0.002099
588.379	0.001879
598.024	0.002569
607.669	0.002719
617.313	0.003209
626.958	0.003109
636.603	0.003489
646.248	0.004139
655.893	0.004119
665.537	0.005119
675.182	0.011159
684.827	0.016659
694.472	0.011619
704.116	0.010509
713.761	0.007029
723.406	0.005169
733.051	0.007209
742.695	0.018079
752.34	0.030099
761.985	0.013379
771.63	0.006069
781.275	0.007649
790.919	0.005439
800.564	0.001849
810.209	0.0013259
819.854	0.001439
829.498	0.0009588
839.143	0.0012776
848.788	0.001829
858.433	0.002029
868.078	0.001439
877.722	0.001859
887.367	0.003719
897.012	0.018029
906.657	0.005619
916.301	0.001589
925.946	0.0012786
935.591	0.001789
945.236	0.002159
954.88	0.002779
964.525	0.004969
974.17	0.002589
983.815	0.001529
993.46	0.001439
1003.1	0.0013226
1012.75	0.002169
1022.39	0.002449
1032.04	0.003919
1041.68	0.001679
1051.33	0.0011716
1060.97	0.001369
1070.62	0.0007535
1080.26	0.001479
1089.91	0.001869
1099.55	0.002559
1109.2	0.003849
1118.84	0.007229
1128.49	0.002729
1138.13	0.003839
1147.78	0.017739
1157.42	0.011389
1167.07	0.004519
1176.71	0.006039
1186.36	0.013129
1196	0.014169
1205.64	0.010989
1215.29	0.008699
1224.93	0.006249
1234.58	0.008199
1244.22	0.007699
1253.87	0.010859
1263.51	0.019119
1273.16	0.029459
1282.8	0.020289
1292.45	0.009969
1302.09	0.008319
1311.74	0.008509
1321.38	0.006439
1331.03	0.005649
1340.67	0.004719
1350.32	0.003599
1359.96	0.003379
1369.61	0.003769
1379.25	0.004539
1388.9	0.005579
1398.54	0.007069
1408.18	0.008129
1417.83	0.007369
1427.47	0.005589
1437.12	0.005069
1446.76	0.005579
1456.41	0.007719
1466.05	0.013889
1475.7	0.019289
1485.34	0.021379
1494.99	0.015029
1504.63	0.007119
1514.28	0.004949
1523.92	0.003769
1533.57	0.002849
1543.21	0.003409
1552.86	0.005239
1562.5	0.009939
1572.15	0.023079
1581.79	0.021879
1591.44	0.010649
1601.08	0.013809
1610.73	0.030929
1620.37	0.092769
1630.01	0.093869
1639.66	0.014669
1649.3	0.005059
1658.95	0.003289
1668.59	0.002659
1678.24	0.002899
1687.88	0.002889
1697.53	0.002469
1707.17	0.002559
1716.82	0.001799
1726.46	0.0012291
1736.11	0.0011126
1745.75	0.0010962
1755.4	0.0011289
1765.04	0.001079
1774.69	0.0013275
1784.33	0.001829
1793.98	0.001409
1803.62	0.0012609
1813.27	0.001369
1822.91	0.001689
1832.55	0.0012904
1842.2	0.0010967
1851.84	0.0013514
1861.49	0.001509
1871.13	0.001273
1880.78	0.0010525
1890.42	0.0011437
1900.07	0.001659
1909.71	0.001509
1919.36	0.0011588
1929	0.002059
1938.65	0.003489
1948.29	0.001579
1957.94	0.0009174
1967.58	0.0008667
1977.23	0.0008365
1986.87	0.0008201
1996.52	0.0007011
2006.16	0.000688
2015.81	0.0006967
2025.45	0.0006986
2035.1	0.0008083
2044.74	0.0007913
2054.38	0.0008816
2064.03	0.0008469
2073.67	0.000845
2083.32	0.0006932
2092.96	0.0007409
2102.61	0.0008241
2112.25	0.0007555
2121.9	0.0007361
2131.54	0.0007301
2141.19	0.0006562
2150.83	0.0006696
2160.48	0.0007682
2170.12	0.0008103
2179.77	0.0008404
2189.41	0.0008173
2199.06	0.0007237
2208.7	0.0007566
2218.35	0.0007665
2227.99	0.0008103
2237.64	0.0007569
2247.28	0.0008888
2256.92	0.0008864
2266.57	0.0009718
2276.21	0.0010117
2285.86	0.0008251
2295.5	0.0008323
2305.15	0.0010148
2314.79	0.0009696
2324.44	0.0010269
2334.08	0.0010813
2343.73	0.0011264
2353.37	0.0011534
2363.02	0.0009976
2372.66	0.0011094
2382.31	0.0012222
2391.95	0.0012659
2401.6	0.0012984
2411.24	0.0012163
2420.89	0.0011733
2430.53	0.0010559
2440.18	0.0011041
2449.82	0.0010488
2459.47	0.0011738
2469.11	0.0011863
2478.75	0.0011762
2488.4	0.0013155
2498.04	0.001439
2507.69	0.001719
2517.33	0.001659
2526.98	0.001419
2536.62	0.001449
2546.27	0.001669
2555.91	0.001689
2565.56	0.001819
2575.2	0.001949
2584.85	0.002049
2594.49	0.002119
2604.14	0.002129
2613.78	0.002319
2623.43	0.002429
2633.07	0.002529
2642.72	0.002369
2652.36	0.002449
2662.01	0.002449
2671.65	0.002519
2681.29	0.002669
2690.94	0.002539
2700.58	0.002609
2710.23	0.002689
2719.87	0.002809
2729.52	0.002909
2739.16	0.003069
2748.81	0.003089
2758.45	0.003379
2768.1	0.003429
2777.74	0.003449
2787.39	0.003439
2797.03	0.003329
2806.68	0.003209
2816.32	0.003359
2825.97	0.003499
2835.61	0.003509
2845.26	0.003789
2854.9	0.004129
2864.55	0.004329
2874.19	0.004529
2883.84	0.004529
2893.48	0.004579
2903.12	0.004689
2912.77	0.004979
2922.41	0.005319
2932.06	0.006089
2941.7	0.007179
2951.35	0.007449
2960.99	0.006809
2970.64	0.006239
2980.28	0.006009
2989.93	0.006809
2999.57	0.008069
3009.22	0.008509
3018.86	0.008439
3028.51	0.008959
3038.15	0.009759
3047.8	0.011219
3057.44	0.013199
3067.09	0.015889
3076.73	0.016579
3086.38	0.011809
3096.02	0.011319
3105.67	0.010619
3115.31	0.009959
3124.95	0.009399
3134.6	0.009669
3144.24	0.010039
3153.89	0.010289
3163.53	0.010719
3173.18	0.011099
3182.82	0.010739
3192.47	0.010919
3202.11	0.010819
3211.76	0.011209
3221.4	0.011419
3231.05	0.011469
3240.69	0.011349
3250.34	0.011119
3259.98	0.010779
3269.63	0.010709
3279.27	0.010299
3288.92	0.009859
3298.56	0.009579
3308.21	0.008999
3317.85	0.008649
3327.49	0.008149
3337.14	0.007639
3346.78	0.007149
3356.43	0.006269
3366.07	0.005929
3375.72	0.005669
3385.36	0.004969
3395.01	0.004569
3404.65	0.004159
3414.3	0.003659
3423.94	0.003329
3433.59	0.002969
3443.23	0.002589
3452.88	0.002389
3462.52	0.002369
3472.17	0.001949
3481.81	0.001869
3491.46	0.001629
3501.1	0.001216
3510.75	0.0013366
3520.39	0.0010522
3530.04	0.0011225
3539.68	0.0010016
3549.32	0.0009525
3558.97	0.000995
3568.61	0.000683
3578.26	0.0005746
3587.9	0.0005837
3597.55	0.0005392
3607.19	0.0005986
3616.84	0.0005305
3626.48	0.000538
3636.13	0.0007383
3645.77	0.0007043
3655.42	0.0008617
3665.06	0.0005522
3674.71	0.0005484
3684.35	0.0003417
3694	0.0003466
3703.64	0.00039601
3713.29	0.0004765
3722.93	0.00040942
3732.58	0.00039079
3742.22	0.0003194
3751.86	0.0003196
3761.51	0.0005103
3771.15	0.00034
3780.8	0.00041296
3790.44	0.00042896
3800.09	0.0003363
3809.73	0.00038772
3819.38	0.0003285
3829.02	0.0003397
3838.67	0.00015
3848.31	0.00040075
3857.96	0.0002777
3867.6	0.0004617
3877.25	0.0005734
3886.89	0
3896.54	0.0003948
3906.18	0.0003196
3915.83	0.0005233
3925.47	0.00044455
3935.12	0.00043003
3944.76	0.0004623
3954.41	0.0006842
3964.05	0.0006753
3973.69	0.0005727
3983.34	0.0004631
3992.98	0.00038639
