Infrared Spectrum: 2-THIOPHENINE, 3,5-DINITRO-N-PHENYL THIOPHENE, 2-ANILINO-3,5-DINITRO-
Formula: C10 H7 N3 O4 S
CAS: 959-38-6
State: SOLID (KBr PELLET)
Melting point: 162-163 C
Class: COBLENTZ
Instrument: Not specified, most likely a prism, grating, or hybrid spectrometer.
Sampling: TRANSMISSION
Resolution: 4
Origin: TENNESSEE EASTMAN COMPANY, RESEARCH LABORATORIES
MICROMETERS	TRANSMITTANCE
2.027	0.377
2.06786	0.38
2.10871	0.386
2.14957	0.392
2.19042	0.401
2.23128	0.411
2.27214	0.418
2.31299	0.431
2.35385	0.44
2.3947	0.445
2.43556	0.452
2.47642	0.465
2.51727	0.471
2.55813	0.476
2.59898	0.479
2.63984	0.493
2.6807	0.501
2.72155	0.455
2.76241	0.367
2.80326	0.319
2.84412	0.289
2.88498	0.285
2.92583	0.318
2.96669	0.372
3.00754	0.423
3.0484	0.448
3.08926	0.469
3.13011	0.501
3.17097	0.561
3.21182	0.452
3.25268	0.615
3.29354	0.624
3.33439	0.636
3.37525	0.642
3.4161	0.659
3.45696	0.67
3.49782	0.676
3.53867	0.685
3.57953	0.693
3.62038	0.702
3.66124	0.71
3.7021	0.721
3.74295	0.726
3.78381	0.729
3.82466	0.736
3.86552	0.739
3.90638	0.75
3.94723	0.755
3.98809	0.76
4.02894	0.768
4.0698	0.773
4.11066	0.778
4.15151	0.787
4.19237	0.787
4.23322	0.775
4.27408	0.772
4.31494	0.79
4.35579	0.812
4.39665	0.816
4.4375	0.821
4.47836	0.824
4.51922	0.828
4.56007	0.833
4.60093	0.836
4.64178	0.841
4.68264	0.845
4.72349	0.848
4.76435	0.85
4.80521	0.857
4.84606	0.857
4.88692	0.858
4.92777	0.862
4.96863	0.869
5.00949	0.877
5.05034	0.877
5.0912	0.877
5.13205	0.879
5.17291	0.887
5.21377	0.896
5.25462	0.899
5.29548	0.904
5.33633	0.901
5.37719	0.899
5.41805	0.897
5.4589	0.903
5.49976	0.906
5.54061	0.901
5.58147	0.899
5.62233	0.889
5.66318	0.897
5.70404	0.887
5.74489	0.87
5.78575	0.877
5.82661	0.869
5.86746	0.85
5.90832	0.858
5.94917	0.843
5.99003	0.833
6.03089	0.811
6.07174	0.772
6.1126	0.772
6.15345	0.772
6.19431	0.729
6.23517	0.579
6.27602	0.801
6.31688	0.707
6.35773	0.187
6.39859	0.569
6.43945	0.683
6.4803	0.365
6.52116	0.209
6.56201	0.137
6.60287	0.294
6.64373	0.479
6.68458	0.25
6.72544	0.54
6.76629	0.7
6.80715	0.69
6.84801	0.443
6.88886	0.658
6.92972	0.498
6.97057	0.365
7.01143	0.566
7.05229	0.651
7.09314	0.661
7.134	0.668
7.17485	0.673
7.21571	0.629
7.25657	0.573
7.29742	0.392
7.33828	0.465
7.37913	0.61
7.41999	0.617
7.46085	0.619
7.5017	0.6
7.54256	0.535
7.58341	0.243
7.62427	0.052
7.66513	0.108
7.70598	0.355
7.74684	0.5
7.78769	0.489
7.82855	0.465
7.86941	0.5
7.91026	0.484
7.95112	0.435
7.99197	0.289
8.03283	0.1
8.07369	0.183
8.11454	0.396
8.1554	0.607
8.19625	0.646
8.23711	0.68
8.27797	0.693
8.31882	0.661
8.35968	0.678
8.40053	0.676
8.44139	0.636
8.48225	0.537
8.5231	0.488
8.56396	0.664
8.60481	0.702
8.64567	0.71
8.68653	0.751
8.72738	0.765
8.76824	0.768
8.80909	0.775
8.84995	0.777
8.89081	0.767
8.93166	0.761
8.97252	0.722
9.01337	0.63
9.05423	0.702
9.09509	0.746
9.13594	0.756
9.1768	0.738
9.21765	0.573
9.25851	0.471
9.29937	0.619
9.34022	0.717
9.38108	0.741
9.42193	0.751
9.46279	0.765
9.50365	0.777
9.5445	0.785
9.58536	0.787
9.62621	0.787
9.66707	0.78
9.70793	0.777
9.74878	0.789
9.78964	0.794
9.83049	0.789
9.87135	0.794
9.9122	0.806
9.95306	0.811
9.99392	0.797
10.0348	0.799
10.0756	0.809
10.1165	0.814
10.1573	0.818
10.1982	0.823
10.2391	0.823
10.2799	0.812
10.3208	0.802
10.3616	0.795
10.4025	0.799
10.4433	0.806
10.4842	0.809
10.525	0.812
10.5659	0.818
10.6068	0.824
10.6476	0.826
10.6885	0.829
10.7293	0.828
10.7702	0.831
10.811	0.831
10.8519	0.833
10.8927	0.838
10.9336	0.846
10.9745	0.846
11.0153	0.836
11.0562	0.838
11.097	0.841
11.1379	0.843
11.1787	0.826
11.2196	0.71
11.2605	0.729
11.3013	0.814
11.3422	0.819
11.383	0.829
11.4239	0.84
11.4647	0.843
11.5056	0.84
11.5464	0.784
11.5873	0.768
11.6282	0.819
11.669	0.84
11.7099	0.846
11.7507	0.846
11.7916	0.841
11.8324	0.838
11.8733	0.836
11.9141	0.84
11.955	0.843
11.9959	0.845
12.0367	0.843
12.0776	0.836
12.1184	0.831
12.1593	0.826
12.2001	0.801
12.241	0.777
12.2819	0.799
12.3227	0.789
12.3636	0.765
12.4044	0.797
12.4453	0.811
12.4861	0.809
12.527	0.809
12.5678	0.814
12.6087	0.818
12.6496	0.819
12.6904	0.812
12.7313	0.809
12.7721	0.799
12.813	0.799
12.8538	0.792
12.8947	0.778
12.9355	0.761
12.9764	0.775
13.0173	0.785
13.0581	0.78
13.099	0.756
13.1398	0.688
13.1807	0.564
13.2215	0.426
13.2624	0.34
13.3033	0.454
13.3441	0.656
13.385	0.729
13.4258	0.765
13.4667	0.765
13.5075	0.761
13.5484	0.721
13.5892	0.537
13.6301	0.469
13.671	0.637
13.7118	0.744
13.7527	0.77
13.7935	0.775
13.8344	0.775
13.8752	0.777
13.9161	0.772
13.9569	0.768
13.9978	0.758
14.0387	0.748
14.0795	0.726
14.1204	0.698
14.1612	0.658
14.2021	0.627
14.2429	0.613
14.2838	0.613
14.3247	0.622
14.3655	0.641
14.4064	0.649
14.4472	0.636
14.4881	0.61
14.5289	0.603
14.5698	0.62
14.6106	0.636
14.6515	0.639
14.6924	0.619
14.7332	0.615
14.7741	0.63
14.8149	0.656
14.8558	0.661
14.8966	0.658
14.9375	0.637
14.9783	0.617
15.0192	0.625
15.0601	0.629
15.1009	0.625
15.1418	0.612
15.1826	0.595
15.2235	0.574
15.2643	0.559
15.3052	0.547
15.3461	0.539
15.3869	0.53
15.4278	0.525
15.4686	0.525
15.5095	0.518
15.5503	0.518
15.5912	0.515
15.632	0.506
15.6729	0.503
15.7138	0.496
15.7546	0.482
15.7955	0.472
15.8363	0.465
15.8772	0.46
15.918	0.454
15.9589	0.45
