Infrared Spectrum: trans-1,2-Dibenzoylethylene
Formula: C 16 H 12 O 2
CAS: 959-28-4
State: gas
Origin: EPA-IR VAPOR PHASE LIBRARY
1/CM	ABSORBANCE
549.8	0.002707
559.445	0.002627
569.09	0.005197
578.734	0.013467
588.379	0.020137
598.024	0.011477
607.669	0.009687
617.313	0.009977
626.958	0.010797
636.603	0.015697
646.248	0.014197
655.893	0.009407
665.537	0.009847
675.182	0.014037
684.827	0.022717
694.472	0.035667
704.116	0.054047
713.761	0.039927
723.406	0.017327
733.051	0.012357
742.695	0.010087
752.34	0.009627
761.985	0.010657
771.63	0.007667
781.275	0.007437
790.919	0.006557
800.564	0.004417
810.209	0.002957
819.854	0.002137
829.498	0.002457
839.143	0.002827
848.788	0.003127
858.433	0.002737
868.078	0.002717
877.722	0.002477
887.367	0.002187
897.012	0.002667
906.657	0.002397
916.301	0.003287
925.946	0.004637
935.591	0.004547
945.236	0.005547
954.88	0.008597
964.525	0.014747
974.17	0.018717
983.815	0.015847
993.46	0.014697
1003.1	0.025057
1012.75	0.061307
1022.39	0.044087
1032.04	0.020537
1041.68	0.012917
1051.33	0.010627
1060.97	0.010167
1070.62	0.009167
1080.26	0.005697
1089.91	0.004167
1099.55	0.003547
1109.2	0.003427
1118.84	0.003257
1128.49	0.002557
1138.13	0.002917
1147.78	0.003847
1157.42	0.006587
1167.07	0.010307
1176.71	0.035757
1186.36	0.041237
1196	0.034347
1205.64	0.019007
1215.29	0.017217
1224.93	0.023787
1234.58	0.028897
1244.22	0.035167
1253.87	0.054027
1263.51	0.078927
1273.16	0.070947
1282.8	0.079887
1292.45	0.130937
1302.09	0.091867
1311.74	0.067937
1321.38	0.083507
1331.03	0.034007
1340.67	0.018647
1350.32	0.008267
1359.96	0.005907
1369.61	0.005737
1379.25	0.005367
1388.9	0.004397
1398.54	0.003797
1408.18	0.003717
1417.83	0.003637
1427.47	0.004207
1437.12	0.007827
1446.76	0.024647
1456.41	0.011177
1466.05	0.004037
1475.7	0.003257
1485.34	0.003467
1494.99	0.004327
1504.63	0.003597
1514.28	0.003447
1523.92	0.003217
1533.57	0.003417
1543.21	0.003447
1552.86	0.003887
1562.5	0.004687
1572.15	0.008067
1581.79	0.012527
1591.44	0.014627
1601.08	0.019167
1610.73	0.013647
1620.37	0.010967
1630.01	0.008857
1639.66	0.010657
1649.3	0.015847
1658.95	0.030237
1668.59	0.073177
1678.24	0.112257
1687.88	0.073657
1697.53	0.035357
1707.17	0.017347
1716.82	0.009147
1726.46	0.005937
1736.11	0.004087
1745.75	0.003447
1755.4	0.003237
1765.04	0.003277
1774.69	0.002837
1784.33	0.002177
1793.98	0.002447
1803.62	0.003847
1813.27	0.003617
1822.91	0.002347
1832.55	0.001927
1842.2	0.001717
1851.84	0.001527
1861.49	0.001417
1871.13	0.001467
1880.78	0.001687
1890.42	0.002247
1900.07	0.002707
1909.71	0.002607
1919.36	0.001877
1929	0.001427
1938.65	0.001577
1948.29	0.002237
1957.94	0.002787
1967.58	0.002817
1977.23	0.002087
1986.87	0.0013444
1996.52	0.0012635
2006.16	0.0011805
2015.81	0.0009564
2025.45	0.00092
2035.1	0.000803
2044.74	0.0007534
2054.38	0.0007545
2064.03	0.0006974
2073.67	0.0006463
2083.32	0.0006823
2092.96	0.0005424
2102.61	0.0005013
2112.25	0.0004974
2121.9	0.0005241
2131.54	0.0005059
2141.19	0.0004793
2150.83	0.0005671
2160.48	0.0006351
2170.12	0.0006026
2179.77	0.0006347
2189.41	0.0005712
2199.06	0.000672
2208.7	0.0005861
2218.35	0.0005685
2227.99	0.0005834
2237.64	0.0007027
2247.28	0.0006609
2256.92	0.0007467
2266.57	0.0008541
2276.21	0.0007736
2285.86	0.0008653
2295.5	0.0008813
2305.15	0.0008133
2314.79	0.0011058
2324.44	0.0012478
2334.08	0.0010457
2343.73	0.0009834
2353.37	0.000745
2363.02	0.0007057
2372.66	0.0007856
2382.31	0.0007325
2391.95	0.0007595
2401.6	0.00084
2411.24	0.0009134
2420.89	0.0009449
2430.53	0.0008062
2440.18	0.0006775
2449.82	0.0006231
2459.47	0.0006425
2469.11	0.0005407
2478.75	0.0005634
2488.4	0.0006609
2498.04	0.0006205
2507.69	0.0005898
2517.33	0.0006133
2526.98	0.000651
2536.62	0.0006227
2546.27	0.0007192
2555.91	0.0006347
2565.56	0.0007682
2575.2	0.0006877
2584.85	0.0009231
2594.49	0.0008495
2604.14	0.0007838
2613.78	0.0007226
2623.43	0.0008596
2633.07	0.0007903
2642.72	0.0006561
2652.36	0.0006426
2662.01	0.0006321
2671.65	0.0006684
2681.29	0.000659
2690.94	0.0006902
2700.58	0.0006185
2710.23	0.000674
2719.87	0.0005935
2729.52	0.0006133
2739.16	0.0006039
2748.81	0.0006656
2758.45	0.0005876
2768.1	0.0007772
2777.74	0.0006908
2787.39	0.0008253
2797.03	0.0008227
2806.68	0.0007285
2816.32	0.0006965
2825.97	0.0008213
2835.61	0.0007993
2845.26	0.0008324
2854.9	0.0009298
2864.55	0.0011018
2874.19	0.0010579
2883.84	0.0010792
2893.48	0.0009937
2903.12	0.0009679
2912.77	0.0009895
2922.41	0.0007816
2932.06	0.0008928
2941.7	0.0006829
2951.35	0.000748
2960.99	0.0007085
2970.64	0.0008692
2980.28	0.0010004
2989.93	0.0012551
2999.57	0.001341
3009.22	0.002217
3018.86	0.003557
3028.51	0.007337
3038.15	0.011417
3047.8	0.010477
3057.44	0.012757
3067.09	0.020727
3076.73	0.024357
3086.38	0.016607
3096.02	0.012447
3105.67	0.007387
3115.31	0.003357
3124.95	0.001867
3134.6	0.0012534
3144.24	0.0012037
3153.89	0.001367
3163.53	0.0012896
3173.18	0.00079
3182.82	0.0007503
3192.47	0.0005253
3202.11	0.0005464
3211.76	0.00038994
3221.4	0.000487
3231.05	0.00038901
3240.69	0.000467
3250.34	0.0005004
3259.98	0.000585
3269.63	0.0007955
3279.27	0.000844
3288.92	0.0008669
3298.56	0.0007591
3308.21	0.0009781
3317.85	0.0010033
3327.49	0.0012996
3337.14	0.001587
3346.78	0.001757
3356.43	0.001727
3366.07	0.0011797
3375.72	0.0007689
3385.36	0.000483
3395.01	0.0006434
3404.65	0.0005254
3414.3	0.00037833
3423.94	0.0004845
3433.59	0.000285
3443.23	0.00039337
3452.88	0.0004643
3462.52	0.000158
3472.17	0.0005404
3481.81	0.0002797
3491.46	0.0003371
3501.1	0.0002663
3510.75	0.0003364
3520.39	0.0003423
3530.04	0.0003188
3539.68	0.00040714
3549.32	0.000239
3558.97	0.00021
3568.61	0.000153
3578.26	0.000229
3587.9	0.000203
3597.55	0.000361482
3607.19	0.00042052
3616.84	0.00038301
3626.48	0.0003234
3636.13	0.000363492
3645.77	0.0004629
3655.42	0.0005113
3665.06	0.0005355
3674.71	0.000124
3684.35	0.0004748
3694	0.0005562
3703.64	0.0007975
3713.29	0.0005261
3722.93	0.00035201
3732.58	0.0002968
3742.22	0.0004572
3751.86	0.00038701
3761.51	0.0003384
3771.15	0.000193
3780.8	0.00043071
3790.44	0.00039785
3800.09	0.0002742
3809.73	0.000249
3819.38	0.00042458
3829.02	0.000396
3838.67	0.0003407
3848.31	0.000163
3857.96	0.000186
3867.6	0.00038971
3877.25	0.0003109
3886.89	0.00037779
3896.54	0.0002854
3906.18	0.0004644
3915.83	0.00043309
3925.47	0.0002732
3935.12	0.000147
3944.76	0.0003344
3954.41	0.000287
3964.05	0.0004039
3973.69	0.0003335
3983.34	0.00039416
3992.98	0.0004881
