Infrared Spectrum: 5,12-Dihydrotetracene
Formula: C 18 H 14
CAS: 959-02-4
State: gas
Instrument: HP-GC/MS/IRD
Origin: NIST Mass Spectrometry Data Center
1/CM	ABSORBANCE
550	0.0001826
562	0.000121
574	7.59e-05
586	4.84e-05
598	0.0002101
610	0.0004829
622	0.0004477
634	0.0001232
646	8.47e-05
658	3.3e-05
670	9.9e-06
682	9.24e-05
694	0.0001474
706	0.0003135
718	0.0009372
730	0.0063591
742	0.011
754	0.0035398
766	0.000682
778	0.0002717
790	0.0001562
802	9.46e-05
814	0.0001012
826	0.000143
838	0.0002772
850	0.0012892
862	0.0026114
874	0.0006809
886	0.0003454
898	0.0003773
910	0.0008195
922	0.0005225
934	0.0002299
946	0.0011352
958	0.000792
970	0.0001793
982	0.0001375
994	0.0001716
1006	0.0003388
1018	0.0004323
1030	0.0002112
1042	0.0003256
1054	7.04e-05
1066	3.41e-05
1078	5.39e-05
1090	4.62e-05
1102	9.35e-05
1114	6.05e-05
1126	0.0001716
1138	0.000715
1150	0.0006699
1162	0.0005478
1174	0.0005214
1186	0.000363
1198	0.0006248
1210	0.0021901
1222	0.0009064
1234	0.0008602
1246	0.0004664
1258	0.0003806
1270	0.0004125
1282	0.0001364
1294	0.000198
1306	0.0004675
1318	0.0001848
1330	0.0001177
1342	0.000253
1354	0.000396
1366	0.0002299
1378	0.0001936
1390	0.0001727
1402	0.0002233
1414	0.0004873
1426	0.001177
1438	0.0010494
1450	0.0018194
1462	0.0030184
1474	0.0014993
1486	0.0035112
1498	0.0022726
1510	0.0012353
1522	0.0003179
1534	0.0001419
1546	0.0001177
1558	0.0002035
1570	0.0004246
1582	0.0007348
1594	0.0005434
1606	0.000407
1618	0.0002079
1630	0.0001045
1642	0.0001111
1654	0.0001265
1666	0.0001705
1678	0.0003817
1690	0.000352
1702	0.0002013
1714	0.0001518
1726	0.0002574
1738	0.0002464
1750	0.0001727
1762	0.0001672
1774	0.0002156
1786	0.000253
1798	0.0004136
1810	0.0003179
1822	0.0002519
1834	0.0001771
1846	0.0001595
1858	0.0001419
1870	8.8e-05
1882	0.0001859
1894	0.000264
1906	0.0002783
1918	0.0003377
1930	0.0004257
1942	0.0004246
1954	6.82e-05
1966	2.53e-05
1978	1.76e-05
1990	3.3e-06
2002	1.43e-05
2014	0
2026	1.98e-05
2038	3.3e-05
2050	2.42e-05
2062	4.4e-06
2074	9.9e-06
2086	1.76e-05
2098	2.64e-05
2110	2.2e-06
2122	1.76e-05
2134	1.76e-05
2146	1.1e-05
2158	1.65e-05
2170	2.42e-05
2182	3.63e-05
2194	2.75e-05
2206	3.85e-05
2218	1.54e-05
2230	1.54e-05
2242	2.2e-06
2254	4.07e-05
2266	5.28e-05
2278	4.84e-05
2290	5.28e-05
2302	7.26e-05
2314	7.48e-05
2326	5.06e-05
2338	5.39e-05
2350	5.39e-05
2362	3.52e-05
2374	3.08e-05
2386	3.08e-05
2398	5.94e-05
2410	5.94e-05
2422	6.82e-05
2434	3.08e-05
2446	4.07e-05
2458	3.52e-05
2470	4.62e-05
2482	3.74e-05
2494	3.41e-05
2506	5.5e-05
2518	6.27e-05
2530	5.17e-05
2542	6.27e-05
2554	4.18e-05
2566	4.84e-05
2578	7.37e-05
2590	5.94e-05
2602	5.28e-05
2614	7.37e-05
2626	6.16e-05
2638	5.61e-05
2650	9.13e-05
2662	5.39e-05
2674	0.0001144
2686	9.35e-05
2698	7.7e-05
2710	7.48e-05
2722	7.37e-05
2734	9.35e-05
2746	9.68e-05
2758	8.58e-05
2770	0.0001397
2782	0.0001892
2794	0.000253
2806	0.0005071
2818	0.0014696
2830	0.0018029
2842	0.0009493
2854	0.0008624
2866	0.0013827
2878	0.0014344
2890	0.0007524
2902	0.0005302
2914	0.0005005
2926	0.0007766
2938	0.0022143
2950	0.002684
2962	0.0010989
2974	0.0006655
2986	0.0008371
2998	0.0014465
3010	0.0027269
3022	0.0037807
3034	0.0033352
3046	0.0036069
3058	0.0064691
3070	0.0058685
3082	0.0039732
3094	0.0015521
3106	0.0006347
3118	0.0003476
3130	0.0002134
3142	0.000209
3154	0.0002035
3166	0.0001639
3178	0.0001419
3190	9.9e-05
3202	9.13e-05
3214	9.46e-05
3226	4.4e-05
3238	4.73e-05
3250	3.96e-05
3262	5.39e-05
3274	5.61e-05
3286	3.19e-05
3298	2.53e-05
3310	3.19e-05
3322	4.51e-05
3334	5.94e-05
3346	3.63e-05
3358	2.97e-05
3370	2.42e-05
3382	2.53e-05
3394	1.21e-05
3406	1.98e-05
3418	2.64e-05
3430	4.95e-05
3442	4.18e-05
3454	4.62e-05
3466	3.08e-05
3478	1.43e-05
3490	2.42e-05
3502	1.65e-05
3514	5.06e-05
3526	4.18e-05
3538	4.95e-05
3550	6.27e-05
3562	5.72e-05
3574	5.39e-05
3586	5.83e-05
3598	6.05e-05
3610	5.39e-05
3622	5.72e-05
3634	7.59e-05
3646	6.71e-05
3658	7.81e-05
3670	0.0001078
3682	8.25e-05
3694	6.16e-05
3706	6.49e-05
3718	3.08e-05
3730	3.74e-05
3742	3.74e-05
3754	7.37e-05
3766	4.62e-05
3778	8.58e-05
3790	8.14e-05
3802	5.94e-05
3814	4.62e-05
3826	7.48e-05
3838	6.6e-05
