Infrared Spectrum: Choline, iodide, 2-ethylcrotonate
Formula: C11 H22 I N O2
CAS: 95915-20-1
State: SOLID (NUJOL MULL)
Class: COBLENTZ III
Instrument: PERKIN-ELMER 221 (GRATING)
Instrument parameters: FILTER AT 980 CM^-^1. GRATING 4000-1428 CM^-^1, NaCl PRISM 1428-650 CM^-^1
Resolution: 2
Origin: SOUTHERN RESEARCH INSTITUTE
1/CM	TRANSMITTANCE
639	0.7699
648	0.8127
657	0.8359
666	0.8565
675	0.874
684	0.8783
693	0.8724
702	0.8456
711	0.7562
720	0.7208
729	0.6649
738	0.376
747	0.5071
756	0.892
765	0.8956
774	0.8678
783	0.7269
792	0.7172
801	0.9331
810	0.921
819	0.9127
828	0.8996
837	0.8607
846	0.785
855	0.5501
864	0.6119
873	0.7079
882	0.7456
891	0.852
900	0.8363
909	0.7916
918	0.6656
927	0.4686
936	0.5378
945	0.331
954	0.4416
963	0.6069
972	0.6966
981	0.8474
990	0.8492
999	0.8339
1008	0.7861
1017	0.5851
1026	0.6703
1035	0.7464
1044	0.6455
1053	0.4643
1062	0.681
1071	0.7586
1080	0.7621
1089	0.6528
1098	0.6973
1107	0.6699
1116	0.4649
1125	0.2762
1134	0.2867
1143	0.5373
1152	0.732
1161	0.772
1170	0.7936
1179	0.7754
1188	0.7656
1197	0.7227
1206	0.6022
1215	0.5549
1224	0.4095
1233	0.3093
1242	0.4844
1251	0.6929
1260	0.6667
1269	0.4969
1278	0.3787
1287	0.5299
1296	0.6376
1305	0.7422
1314	0.7524
1323	0.7368
1332	0.6072
1341	0.6539
1350	0.613
1359	0.4984
1368	0.3148
1377	0.409
1386	0.5158
1395	0.6747
1404	0.6177
1413	0.6295
1422	0.5765
1431	0.3719
1440	0.2717
1449	0.1688
1458	0.1573
1467	0.2832
1476	0.3258
1485	0.5357
1494	0.7222
1503	0.8092
1512	0.8413
1521	0.8514
1530	0.8568
1539	0.8555
1548	0.8513
1557	0.8478
1566	0.8379
1575	0.8267
1584	0.8147
1593	0.8004
1602	0.7831
1611	0.7604
1620	0.7342
1629	0.7109
1638	0.6461
1647	0.5271
1656	0.6113
1665	0.5165
1674	0.495
1683	0.3924
1692	0.2499
1701	0.2343
1710	0.2499
1719	0.445
1728	0.6558
1737	0.7841
1746	0.8716
1755	0.8943
1764	0.8943
1773	0.8899
1782	0.8929
1791	0.9099
1800	0.9214
1809	0.9298
1818	0.9345
1827	0.9373
1836	0.9397
1845	0.9398
1854	0.9388
1863	0.9366
1872	0.9304
1881	0.9201
1890	0.9162
1899	0.9141
1908	0.9124
1917	0.9104
1926	0.9129
1935	0.9198
1944	0.9218
1953	0.9219
1962	0.9209
1971	0.912
1980	0.9031
1989	0.8951
1998	0.8927
2007	0.8999
2016	0.9005
2025	0.8996
2034	0.8993
2043	0.8993
2052	0.8983
2061	0.8966
2070	0.8941
2079	0.8899
2088	0.8868
2097	0.8843
2106	0.8828
2115	0.8819
2124	0.8812
2133	0.8795
2142	0.8782
2151	0.8777
2160	0.8766
2169	0.8754
2178	0.8741
2187	0.8724
2196	0.8708
2205	0.8696
2214	0.8686
2223	0.868
2232	0.8649
2241	0.8604
2250	0.8543
2259	0.8493
2268	0.845
2277	0.8405
2286	0.8342
2295	0.8287
2304	0.8237
2313	0.8201
2322	0.8164
2331	0.8125
2340	0.8095
2349	0.8081
2358	0.8089
2367	0.8133
2376	0.8181
2385	0.8181
2394	0.8176
2403	0.8171
2412	0.8162
2421	0.8151
2430	0.8124
2439	0.8037
2448	0.7963
2457	0.7915
2466	0.7864
2475	0.7834
2484	0.7814
2493	0.7827
2502	0.7792
2511	0.7784
2520	0.7783
2529	0.7758
2538	0.7681
2547	0.759
2556	0.75
2565	0.743
2574	0.7373
2583	0.7355
2592	0.7348
2601	0.7349
2610	0.733
2619	0.7297
2628	0.7258
2637	0.7218
2646	0.7167
2655	0.711
2664	0.7069
2673	0.7034
2682	0.7008
2691	0.6961
2700	0.6912
2709	0.6874
2718	0.6861
2727	0.6855
2736	0.6834
2745	0.68
2754	0.6759
2763	0.6715
2772	0.6655
2781	0.6585
2790	0.6486
2799	0.6131
2808	0.5674
2817	0.509
2826	0.3951
2835	0.2496
2844	0.095
2853	0.0633
2862	0.0665
2871	0.0686
2880	0.0647
2889	0.0434
2898	0.0253
2907	0.0137
2916	0.009
2925	0.0082
2934	0.0109
2943	0.0162
2952	0.0223
2961	0.0402
2970	0.0689
2979	0.1187
2988	0.2435
2997	0.238
3006	0.337
3015	0.4166
3024	0.4148
3033	0.5259
3042	0.5423
3051	0.5573
3060	0.5734
3069	0.5849
3078	0.5937
3087	0.601
3096	0.6067
3105	0.6126
3114	0.6263
3123	0.6311
3132	0.6319
3141	0.6332
3150	0.6345
3159	0.6357
3168	0.6367
3177	0.6374
3186	0.6381
3195	0.6388
3204	0.6395
3213	0.6399
3222	0.6403
3231	0.6401
3240	0.6398
3249	0.6394
3258	0.6389
3267	0.6372
3276	0.6329
3285	0.6271
3294	0.6239
3303	0.6219
3312	0.6206
3321	0.6199
3330	0.6195
3339	0.6198
3348	0.6203
3357	0.6208
3366	0.6213
3375	0.6214
3384	0.6213
3393	0.6216
3402	0.6224
3411	0.6226
3420	0.6269
3429	0.6264
3438	0.6263
3447	0.6264
3456	0.6268
3465	0.6273
3474	0.6278
3483	0.6283
3492	0.6288
3501	0.6296
3510	0.6304
3519	0.6312
3528	0.6313
3537	0.6313
3546	0.6314
3555	0.6312
3564	0.6305
3573	0.6299
3582	0.6291
3591	0.6281
3600	0.627
3609	0.626
3618	0.6253
3627	0.6247
3636	0.624
3645	0.6234
3654	0.6235
3663	0.6236
3672	0.6237
3681	0.624
3690	0.6244
3699	0.6242
3708	0.6238
3717	0.6233
3726	0.6223
3735	0.6211
3744	0.62
3753	0.6197
3762	0.6196
3771	0.6185
3780	0.6166
3789	0.6135
3798	0.6101
3807	0.606
3816	0.6053
3825	0.6067
3834	0.6078
3843	0.6082
3852	0.6069
3861	0.6063
3870	0.6059
3879	0.6046
3888	0.6024
3897	0.6002
