Infrared Spectrum: P-PHENYLAZO CARBANILIC ACID, PHENETHYL ESTER
Formula: C21 H19 N3 O2
CAS: 95937-85-2
State: SOLID (1.5 mg / 100 mg KBr)
Melting point: 120.5-123 C
Class: COBLENTZ
Instrument: Not specified, most likely a grating spectrometer.
Sampling: TRANSMISSION
Resolution: 4
Origin: CITRUS EXPERIMENT STATION, UNIVERSITY OF FLORIDA (G. EDWARDS)
MICROMETERS	TRANSMITTANCE
2.033	0.612
2.06614	0.616
2.09929	0.623
2.13243	0.626
2.16557	0.63
2.19872	0.632
2.23186	0.635
2.26501	0.638
2.29815	0.64
2.33129	0.642
2.36444	0.65
2.39758	0.654
2.43072	0.656
2.46387	0.66
2.49701	0.664
2.53016	0.668
2.5633	0.671
2.59644	0.676
2.62959	0.679
2.66273	0.683
2.69587	0.684
2.72902	0.684
2.76216	0.686
2.79531	0.687
2.82845	0.691
2.86159	0.694
2.89474	0.694
2.92788	0.687
2.96102	0.646
2.99417	0.425
3.02731	0.526
3.06045	0.65
3.0936	0.682
3.12674	0.695
3.15989	0.704
3.19303	0.7
3.22617	0.682
3.25932	0.663
3.29246	0.654
3.3256	0.692
3.35875	0.654
3.39189	0.624
3.42504	0.656
3.45818	0.678
3.49132	0.7
3.52447	0.724
3.55761	0.723
3.59075	0.726
3.6239	0.728
3.65704	0.732
3.69018	0.735
3.72333	0.738
3.75647	0.739
3.78962	0.743
3.82276	0.746
3.8559	0.75
3.88905	0.751
3.92219	0.754
3.95533	0.757
3.98848	0.761
4.02162	0.763
4.05477	0.766
4.08791	0.767
4.12105	0.769
4.1542	0.77
4.18734	0.769
4.22048	0.765
4.25363	0.766
4.28677	0.769
4.31992	0.771
4.35306	0.773
4.3862	0.773
4.41935	0.773
4.45249	0.778
4.48563	0.781
4.51878	0.781
4.55192	0.782
4.58506	0.782
4.61821	0.785
4.65135	0.786
4.6845	0.789
4.71764	0.79
4.75078	0.791
4.78393	0.791
4.81707	0.793
4.85021	0.794
4.88336	0.794
4.9165	0.791
4.94965	0.794
4.98279	0.797
5.01593	0.797
5.04908	0.797
5.08222	0.795
5.11536	0.793
5.14851	0.794
5.18165	0.795
5.21479	0.795
5.24794	0.799
5.28108	0.801
5.31423	0.802
5.34737	0.807
5.38051	0.809
5.41366	0.806
5.4468	0.801
5.47994	0.798
5.51309	0.799
5.54623	0.799
5.57938	0.799
5.61252	0.802
5.64566	0.795
5.67881	0.781
5.71195	0.7
5.74509	0.634
5.77824	0.52
5.81138	0.212
5.84453	0.323
5.87767	0.623
5.91081	0.711
5.94396	0.731
5.9771	0.747
6.01024	0.77
6.04339	0.774
6.07653	0.773
6.10967	0.77
6.14282	0.761
6.17596	0.699
6.20911	0.57
6.24225	0.417
6.27539	0.487
6.30854	0.654
6.34168	0.751
6.37482	0.723
6.40797	0.61
6.44111	0.393
6.47426	0.209
6.5074	0.225
6.54054	0.384
6.57369	0.48
6.60683	0.571
6.63997	0.6
6.67312	0.654
6.70626	0.663
6.7394	0.703
6.77255	0.671
6.80569	0.674
6.83884	0.672
6.87198	0.686
6.90512	0.652
6.93827	0.684
6.97141	0.751
7.00455	0.742
7.0377	0.563
7.07084	0.433
7.10399	0.62
7.13713	0.714
7.17027	0.735
7.20342	0.735
7.23656	0.72
7.2697	0.699
7.30285	0.726
7.33599	0.746
7.36914	0.761
7.40228	0.766
7.43542	0.755
7.46857	0.738
7.50171	0.712
7.53485	0.66
7.568	0.591
7.60114	0.451
7.63428	0.34
7.66743	0.514
7.70057	0.622
7.73372	0.704
7.76686	0.734
7.8	0.742
7.83315	0.74
7.86629	0.715
7.89943	0.672
7.93258	0.631
7.96572	0.571
7.99887	0.459
8.03201	0.221
8.06515	0.116
8.0983	0.17
8.13144	0.291
8.16458	0.415
8.19773	0.493
8.23087	0.559
8.26401	0.59
8.29716	0.582
8.3303	0.615
8.36345	0.676
8.39659	0.694
8.42973	0.711
8.46288	0.726
8.49602	0.74
8.52916	0.746
8.56231	0.744
8.59545	0.731
8.6286	0.642
8.66174	0.6
8.69488	0.666
8.72803	0.655
8.76117	0.711
8.79431	0.744
8.82746	0.762
8.8606	0.77
8.89375	0.771
8.92689	0.773
8.96003	0.755
8.99318	0.716
9.02632	0.663
9.05946	0.707
9.09261	0.743
9.12575	0.727
9.15889	0.671
9.19204	0.599
9.22518	0.548
9.25833	0.341
9.29147	0.361
9.32461	0.502
9.35776	0.6
9.3909	0.663
9.42404	0.67
9.45719	0.599
9.49033	0.595
9.52348	0.648
9.55662	0.695
9.58976	0.724
9.62291	0.732
9.65605	0.739
9.68919	0.707
9.72234	0.679
9.75548	0.71
9.78862	0.688
9.82177	0.684
9.85491	0.694
9.88806	0.706
9.9212	0.743
9.95434	0.755
9.98749	0.762
10.0206	0.773
10.0538	0.779
10.0869	0.781
10.1201	0.781
10.1532	0.769
10.1863	0.753
10.2195	0.757
10.2526	0.774
10.2858	0.785
10.3189	0.786
10.3521	0.789
10.3852	0.793
10.4184	0.799
10.4515	0.802
10.4846	0.803
10.5178	0.806
10.5509	0.81
10.5841	0.81
10.6172	0.814
10.6504	0.814
10.6835	0.811
10.7166	0.807
10.7498	0.798
10.7829	0.794
10.8161	0.79
10.8492	0.79
10.8824	0.795
10.9155	0.798
10.9487	0.798
10.9818	0.802
11.0149	0.81
11.0481	0.821
11.0812	0.83
11.1144	0.833
11.1475	0.834
11.1807	0.83
11.2138	0.827
11.2469	0.826
11.2801	0.831
11.3132	0.834
11.3464	0.838
11.3795	0.837
11.4127	0.833
11.4458	0.827
11.479	0.822
11.5121	0.815
11.5452	0.811
11.5784	0.809
11.6115	0.809
11.6447	0.809
11.6778	0.802
11.711	0.785
11.7441	0.743
11.7772	0.716
11.8104	0.666
11.8435	0.622
11.8767	0.591
11.9098	0.611
11.943	0.68
11.9761	0.708
12.0093	0.716
12.0424	0.719
12.0755	0.73
12.1087	0.75
12.1418	0.773
12.175	0.79
12.2081	0.801
12.2413	0.813
12.2744	0.817
12.3075	0.819
12.3407	0.821
12.3738	0.826
12.407	0.83
12.4401	0.83
12.4733	0.833
12.5064	0.838
12.5396	0.842
12.5727	0.843
12.6058	0.843
12.639	0.842
12.6721	0.841
12.7053	0.843
12.7384	0.845
12.7716	0.845
12.8047	0.845
12.8378	0.842
12.871	0.831
12.9041	0.813
12.9373	0.786
12.9704	0.736
13.0036	0.672
13.0367	0.643
13.0699	0.619
13.103	0.642
13.1361	0.702
13.1693	0.74
13.2024	0.758
13.2356	0.743
13.2687	0.71
13.3019	0.652
13.335	0.62
13.3681	0.654
13.4013	0.68
13.4344	0.668
13.4676	0.652
13.5007	0.686
13.5339	0.735
13.567	0.785
13.6001	0.822
13.6333	0.845
13.6664	0.859
13.6996	0.875
13.7327	0.885
13.7659	0.891
13.799	0.893
13.8322	0.89
13.8653	0.878
13.8984	0.871
13.9316	0.849
13.9647	0.817
13.9979	0.789
14.031	0.795
14.0642	0.831
14.0973	0.857
14.1304	0.861
14.1636	0.849
14.1967	0.814
14.2299	0.743
14.263	0.662
14.2962	0.591
14.3293	0.584
14.3625	0.639
14.3956	0.703
14.4287	0.716
14.4619	0.702
14.495	0.67
14.5282	0.636
14.5613	0.631
14.5945	0.656
14.6276	0.728
14.6607	0.785
14.6939	0.837
14.727	0.863
14.7602	0.886
14.7933	0.905
14.8265	0.902
14.8596	0.894
14.8928	0.874
14.9259	0.862
14.959	0.877
14.9922	0.909
