Infrared Spectrum: 17Beta-ACETOXY-2,4-DIBROMOESTRA-1,3,5(10)-TRIEN-3-OL
Formula: C20 H24 Br2 O3
CAS: 95946-09-1
State: SOLID (KBr DISC)
Class: COBLENTZ III
Instrument: BECKMAN IR-4 (HYBRID PRISM-GRATING)
Sampling: TRANSMISSION
Resolution: 4
Origin: THE WORCESTER FOUNDATION FOR EXPERIMENTAL BIOLOGY, Neal L. McNiven
1/CM	TRANSMITTANCE
598.597	0.69
610.269	0.725
621.942	0.767
633.614	0.798
645.286	0.838
656.958	0.879
668.631	0.847
680.303	0.849
691.975	0.856
703.648	0.878
715.32	0.83
726.992	0.914
738.665	0.916
750.337	0.876
762.009	0.685
773.681	0.85
785.354	0.878
797.026	0.819
808.698	0.828
820.371	0.838
832.043	0.807
843.715	0.789
855.388	0.754
867.06	0.708
878.732	0.68
890.404	0.789
902.077	0.708
913.749	0.735
925.421	0.765
937.094	0.719
948.766	0.701
960.438	0.646
972.11	0.678
983.783	0.585
995.455	0.571
1007.13	0.358
1018.8	0.441
1030.47	0.277
1042.14	0.365
1053.82	0.513
1065.49	0.607
1077.16	0.598
1088.83	0.636
1100.51	0.61
1112.18	0.536
1123.85	0.482
1135.52	0.508
1147.19	0.42
1158.87	0.319
1170.54	0.219
1182.21	0.205
1193.88	0.442
1205.56	0.451
1217.23	0.367
1228.9	0.227
1240.57	0.074
1252.25	0.109
1263.92	0.161
1275.59	0.3789
1287.26	0.484
1298.93	0.63
1310.61	0.69
1322.28	0.463
1333.95	0.5739
1345.62	0.576
1357.3	0.495
1368.97	0.428
1380.64	0.42
1392.31	0.373
1403.99	0.606
1415.66	0.627
1427.33	0.645
1439	0.572
1450.67	0.382
1462.35	0.291
1474.02	0.618
1485.69	0.789
1497.36	0.862
1509.04	0.865
1520.71	0.859
1532.38	0.843
1544.05	0.742
1555.73	0.768
1567.4	0.809
1579.07	0.816
1590.74	0.84
1602.41	0.832
1614.09	0.804
1625.76	0.792
1637.43	0.78
1649.1	0.746
1660.78	0.727
1672.45	0.711
1684.12	0.671
1695.79	0.53
1707.47	0.272
1719.14	0.145
1730.81	0.201
1742.48	0.5329
1754.15	0.761
1765.83	0.83
1777.5	0.857
1789.17	0.858
1800.84	0.854
1812.52	0.864
1824.19	0.862
1835.86	0.87
1847.53	0.88
1859.2	0.883
1870.88	0.875
1882.55	0.869
1894.22	0.865
1905.89	0.865
1917.57	0.862
1929.24	0.859
1940.91	0.858
1952.58	0.857
1964.26	0.851
1975.93	0.865
1987.6	0.854
1999.27	0.855
2010.94	0.8533
2022.62	0.8496
2034.29	0.846
2045.96	0.842
2057.63	0.8386
2069.31	0.832
2080.98	0.83
2092.65	0.8294
2104.32	0.8217
2116	0.8134
2127.67	0.8114
2139.34	0.8044
2151.01	0.8004
2162.68	0.8
2174.36	0.801
2186.03	0.803
2197.7	0.8005
2209.37	0.7995
2221.05	0.798
2232.72	0.797
2244.39	0.797
2256.06	0.7955
2267.74	0.7905
2279.41	0.789
2291.08	0.7894
2302.75	0.7958
2314.42	0.8
2326.1	0.8014
2337.77	0.8044
2349.44	0.8091
2361.11	0.8166
2372.79	0.806
2384.46	0.78
2396.13	0.7697
2407.8	0.7637
2419.48	0.761
2431.15	0.7597
2442.82	0.757
2454.49	0.7523
2466.16	0.7413
2477.84	0.7328
2489.51	0.73
2501.18	0.729
2512.85	0.728
2524.53	0.729
2536.2	0.7298
2547.87	0.7301
2559.54	0.73
2571.21	0.73
2582.89	0.7268
2594.56	0.7208
2606.23	0.7179
2617.9	0.7159
2629.58	0.711
2641.25	0.7039
2652.92	0.7
2664.59	0.698
2676.27	0.698
2687.94	0.696
2699.61	0.695
2711.28	0.692
2722.95	0.687
2734.63	0.6861
2746.3	0.6831
2757.97	0.6792
2769.64	0.6714
2781.32	0.668
2792.99	0.6631
2804.66	0.6513
2816.33	0.6396
2828.01	0.6121
2839.68	0.5922
2851.35	0.5505
2863.02	0.4846
2874.69	0.4369
2886.37	0.4157
2898.04	0.4048
2909.71	0.415
2921.38	0.3943
2933.06	0.3522
2944.73	0.307
2956.4	0.291
2968.07	0.3125
2979.75	0.3447
2991.42	0.3855
3003.09	0.4837
3014.76	0.5203
3026.43	0.5723
3038.11	0.6295
3049.78	0.6576
3061.45	0.6726
3073.12	0.679
3084.8	0.68
3096.47	0.6769
3108.14	0.6689
3119.81	0.6625
3131.49	0.6615
3143.16	0.663
3154.83	0.6625
3166.5	0.66
3178.17	0.6575
3189.85	0.654
3201.52	0.6481
3213.19	0.6422
3224.86	0.6376
3236.54	0.6326
3248.21	0.6232
3259.88	0.6176
3271.55	0.6153
3283.23	0.6103
3294.9	0.6013
3306.57	0.594
3318.24	0.5907
3329.91	0.5837
3341.59	0.5782
3353.26	0.5687
3364.93	0.5595
3376.6	0.5455
3388.28	0.5285
3399.95	0.5161
3411.62	0.5034
3423.29	0.4839
3434.96	0.4613
3446.64	0.433
3458.31	0.4091
3469.98	0.382
3481.65	0.3317
3493.33	0.2924
3505	0.2811
3516.67	0.2997
3528.34	0.3703
3540.02	0.4158
3551.69	0.4596
3563.36	0.4923
3575.03	0.5252
3586.7	0.558
3598.38	0.577
3610.05	0.61
3621.72	0.616
3633.39	0.62
3645.07	0.6289
3656.74	0.634
3668.41	0.6429
3680.08	0.6469
3691.76	0.6489
3703.43	0.6499
3715.1	0.65
3726.77	0.652
3738.44	0.653
3750.12	0.654
3761.79	0.6558
3773.46	0.6578
3785.13	0.6618
3796.81	0.6648
3808.48	0.6708
3820.15	0.6655
3831.82	0.6538
3843.5	0.6403
3855.17	0.6437
3866.84	0.647
3878.51	0.6517
3890.18	0.654
3901.86	0.6563
3913.53	0.655
3925.2	0.6524
3936.87	0.6471
3948.55	0.6414
3960.22	0.639
3971.89	0.6364
3983.56	0.636
3995.24	0.6324
4006.91	0.6284
4018.58	0.628
4030.25	0.627
4041.92	0.626
4053.6	0.625
4065.27	0.625
4076.94	0.624
4088.61	0.624
4100.29	0.624
4111.96	0.624
4123.63	0.623
4135.3	0.624
4146.97	0.6226
4158.65	0.621
4170.32	0.619
4181.99	0.6186
4193.66	0.616
4205.34	0.6147
4217.01	0.6137
4228.68	0.613
4240.35	0.613
4252.03	0.612
4263.7	0.611
4275.37	0.611
4287.04	0.611
4298.71	0.61
4310.39	0.6086
4322.06	0.603
4333.73	0.601
4345.4	0.601
4357.08	0.6012
4368.75	0.601
4380.42	0.6
4392.09	0.599
4403.77	0.599
4415.44	0.598
4427.11	0.5969
4438.78	0.596
4450.45	0.596
4462.13	0.598
4473.8	0.598
4485.47	0.597
4497.14	0.595
4508.82	0.594
4520.49	0.593
4532.16	0.593
4543.83	0.593
4555.51	0.593
4567.18	0.594
4578.85	0.594
4590.52	0.595
4602.19	0.595
4613.87	0.595
4625.54	0.5941
4637.21	0.593
4648.88	0.5911
4660.56	0.59
4672.23	0.5892
4683.9	0.5882
4695.57	0.587
4707.25	0.585
4718.92	0.582
4730.59	0.581
4742.26	0.5793
4753.93	0.579
4765.61	0.5773
4777.28	0.5746
4788.95	0.5683
4800.62	0.5673
4812.3	0.565
4823.97	0.5657
4835.64	0.5666
4847.31	0.568
4858.98	0.5696
4870.66	0.571
4882.33	0.571
4894	0.572
4905.67	0.5726
4917.35	0.574
4929.02	0.574
4940.69	0.575
4952.36	0.577
4964.04	0.578
4975.71	0.578
4987.38	0.577
4999.05	0.576
5010.72	0.574
