Infrared Spectrum: P-PHENYLAZO CARBANILIC ACID, n-DODECYL ESTER
Formula: C25 H35 N3 O2
CAS: 95961-99-2
State: SOLID (1.8 mg / 100 mg KBr)
Melting point: 105-106 C
Class: COBLENTZ
Instrument: Not specified, most likely a grating spectrometer.
Sampling: TRANSMISSION
Resolution: 4
Origin: CITRUS EXPERIMENT STATION, UNIVERSITY OF FLORIDA (G. EDWARDS)
MICROMETERS	TRANSMITTANCE
2.066	0.811
2.09916	0.814
2.13233	0.817
2.16549	0.813
2.19866	0.814
2.23182	0.814
2.26498	0.823
2.29815	0.818
2.33131	0.818
2.36448	0.822
2.39764	0.821
2.4308	0.823
2.46397	0.829
2.49713	0.822
2.5303	0.819
2.56346	0.827
2.59662	0.827
2.62979	0.83
2.66295	0.826
2.69612	0.825
2.72928	0.834
2.76244	0.834
2.79561	0.839
2.82877	0.838
2.86194	0.831
2.8951	0.823
2.92826	0.802
2.96143	0.603
2.99459	0.703
3.02776	0.822
3.06092	0.834
3.09408	0.847
3.12725	0.85
3.16041	0.849
3.19358	0.842
3.22674	0.827
3.2599	0.811
3.29307	0.829
3.32623	0.801
3.3594	0.622
3.39256	0.416
3.42572	0.65
3.45889	0.583
3.49205	0.654
3.52522	0.803
3.55838	0.821
3.59155	0.815
3.62471	0.825
3.65787	0.83
3.69104	0.833
3.7242	0.831
3.75737	0.834
3.79053	0.838
3.82369	0.837
3.85686	0.835
3.89002	0.841
3.92319	0.845
3.95635	0.846
3.98951	0.85
4.02268	0.846
4.05584	0.85
4.08901	0.85
4.12217	0.853
4.15533	0.849
4.1885	0.833
4.22166	0.839
4.25483	0.839
4.28799	0.842
4.32115	0.849
4.35432	0.85
4.38748	0.853
4.42065	0.854
4.45381	0.858
4.48697	0.857
4.52014	0.854
4.5533	0.859
4.58647	0.862
4.61963	0.858
4.65279	0.861
4.68596	0.862
4.71912	0.861
4.75229	0.859
4.78545	0.857
4.81861	0.861
4.85178	0.861
4.88494	0.859
4.91811	0.859
4.95127	0.861
4.98443	0.861
5.0176	0.859
5.05076	0.858
5.08393	0.855
5.11709	0.854
5.15025	0.857
5.18342	0.851
5.21658	0.855
5.24975	0.855
5.28291	0.861
5.31607	0.859
5.34924	0.861
5.3824	0.854
5.41557	0.862
5.44873	0.857
5.48189	0.853
5.51506	0.847
5.54822	0.85
5.58139	0.85
5.61455	0.853
5.64771	0.85
5.68088	0.825
5.71404	0.815
5.74721	0.753
5.78037	0.576
5.81353	0.309
5.8467	0.542
5.87986	0.743
5.91303	0.794
5.94619	0.817
5.97935	0.833
6.01252	0.839
6.04568	0.842
6.07885	0.842
6.11201	0.833
6.14517	0.77
6.17834	0.622
6.2115	0.456
6.24467	0.619
6.27783	0.754
6.31099	0.791
6.34416	0.785
6.37732	0.703
6.41049	0.574
6.44365	0.34
6.47681	0.212
6.50998	0.351
6.54314	0.635
6.57631	0.686
6.60947	0.739
6.64264	0.766
6.6758	0.77
6.70896	0.766
6.74213	0.643
6.77529	0.579
6.80846	0.656
6.84162	0.773
6.87478	0.727
6.90795	0.612
6.94111	0.761
6.97428	0.794
7.00744	0.714
7.0406	0.531
7.07377	0.656
7.10693	0.79
7.1401	0.799
7.17326	0.791
7.20642	0.789
7.23959	0.759
7.27275	0.775
7.30592	0.805
7.33908	0.821
7.37224	0.822
7.40541	0.805
7.43857	0.785
7.47174	0.765
7.5049	0.702
7.53806	0.634
7.57123	0.578
7.60439	0.492
7.63756	0.53
7.67072	0.636
7.70388	0.735
7.73705	0.77
7.77021	0.77
7.80338	0.755
7.83654	0.715
7.8697	0.671
7.90287	0.596
7.93603	0.606
7.9692	0.571
8.00236	0.385
8.03552	0.222
8.06869	0.164
8.10185	0.277
8.13502	0.427
8.16818	0.566
8.20134	0.674
8.23451	0.727
8.26767	0.753
8.30084	0.77
8.334	0.794
8.36716	0.802
8.40033	0.794
8.43349	0.797
8.46666	0.831
8.49982	0.834
8.53298	0.833
8.56615	0.838
8.59931	0.807
8.63248	0.683
8.66564	0.602
8.6988	0.704
8.73197	0.707
8.76513	0.802
8.7983	0.825
8.83146	0.831
8.86462	0.843
8.89779	0.847
8.93095	0.837
8.96412	0.834
8.99728	0.794
9.03044	0.727
9.06361	0.753
9.09677	0.778
9.12994	0.827
9.1631	0.833
9.19626	0.829
9.22943	0.801
9.26259	0.73
9.29576	0.614
9.32892	0.522
9.36208	0.606
9.39525	0.698
9.42841	0.734
9.46158	0.735
9.49474	0.769
9.52791	0.794
9.56107	0.822
9.59423	0.814
9.6274	0.822
9.66056	0.831
9.69373	0.83
9.72689	0.847
9.76005	0.851
9.79322	0.789
9.82638	0.826
9.85955	0.827
9.89271	0.843
9.92587	0.859
9.95904	0.851
9.9922	0.838
10.0254	0.862
10.0585	0.874
10.0917	0.873
10.1249	0.867
10.158	0.865
10.1912	0.861
10.2243	0.87
10.2575	0.869
10.2907	0.863
10.3238	0.85
10.357	0.837
10.3902	0.841
10.4233	0.859
10.4565	0.869
10.4897	0.863
10.5228	0.865
10.556	0.875
10.5892	0.879
10.6223	0.885
10.6555	0.887
10.6886	0.89
10.7218	0.886
10.755	0.881
10.7881	0.878
10.8213	0.861
10.8545	0.835
10.8876	0.83
10.9208	0.865
10.954	0.887
10.9871	0.891
11.0203	0.891
11.0535	0.891
11.0866	0.893
11.1198	0.891
11.1529	0.89
11.1861	0.89
11.2193	0.879
11.2524	0.883
11.2856	0.883
11.3188	0.885
11.3519	0.891
11.3851	0.893
11.4183	0.893
11.4514	0.887
11.4846	0.882
11.5177	0.871
11.5509	0.867
11.5841	0.863
11.6172	0.854
11.6504	0.845
11.6836	0.837
11.7167	0.822
11.7499	0.807
11.7831	0.778
11.8162	0.7
11.8494	0.607
11.8826	0.652
11.9157	0.777
11.9489	0.815
11.982	0.814
12.0152	0.799
12.0484	0.823
12.0815	0.845
12.1147	0.865
12.1479	0.875
12.181	0.878
12.2142	0.879
12.2474	0.883
12.2805	0.889
12.3137	0.874
12.3468	0.866
12.38	0.87
12.4132	0.885
12.4463	0.89
12.4795	0.898
12.5127	0.903
12.5458	0.902
12.579	0.901
12.6122	0.901
12.6453	0.905
12.6785	0.895
12.7117	0.887
12.7448	0.891
12.778	0.882
12.8111	0.879
12.8443	0.874
12.8775	0.865
12.9106	0.847
12.9438	0.811
12.977	0.773
13.0101	0.743
13.0433	0.7
13.0765	0.604
13.1096	0.65
13.1428	0.75
13.1759	0.802
13.2091	0.829
13.2423	0.829
13.2754	0.827
13.3086	0.842
13.3418	0.861
13.3749	0.865
13.4081	0.87
13.4413	0.871
13.4744	0.881
13.5076	0.879
13.5408	0.879
13.5739	0.877
13.6071	0.874
13.6402	0.866
13.6734	0.854
13.7066	0.845
13.7397	0.841
13.7729	0.825
13.8061	0.811
13.8392	0.81
13.8724	0.811
13.9056	0.802
13.9387	0.762
13.9719	0.753
14.005	0.797
14.0382	0.846
14.0714	0.857
14.1045	0.877
14.1377	0.877
14.1709	0.874
14.204	0.873
14.2372	0.871
14.2704	0.87
14.3035	0.866
14.3367	0.863
14.3699	0.862
14.403	0.861
14.4362	0.855
14.4693	0.841
14.5025	0.795
14.5357	0.722
14.5688	0.676
14.602	0.65
14.6352	0.674
14.6683	0.743
14.7015	0.802
14.7347	0.833
14.7678	0.851
14.801	0.857
14.8341	0.851
14.8673	0.841
14.9005	0.825
14.9336	0.831
14.9668	0.851
15	0.851
