Infrared Spectrum: 4-HYDROXY-4-PHENYL-3,5,5-TRIMETHYLTHIAZOLIDINE-2-THIONE
Formula: C12 H15 N O S2
CAS: 95982-07-3
State: SOLID (KBr PRESSING)
Class: COBLENTZ
Instrument: Not specified, most likely a prism, grating, or hybrid spectrometer.
Sampling: TRANSMISSION
Resolution: 4
Origin: EASTMAN KODAK COMPANY, RESEARCH LABORATORIES, ROCHESTER, N.Y.
MICROMETERS	TRANSMITTANCE
2.013	0.326
2.05306	0.331
2.09312	0.334
2.13318	0.339
2.17324	0.339
2.2133	0.341
2.25336	0.344
2.29342	0.349
2.33348	0.356
2.37353	0.358
2.41359	0.361
2.45365	0.358
2.49371	0.366
2.53377	0.371
2.57383	0.371
2.61389	0.376
2.65395	0.399
2.69401	0.396
2.73407	0.397
2.77413	0.396
2.81419	0.372
2.85425	0.349
2.89431	0.32
2.93437	0.255
2.97443	0.153
3.01448	0.097
3.05454	0.188
3.0946	0.254
3.13466	0.3
3.17472	0.336
3.21478	0.364
3.25484	0.377
3.2949	0.376
3.33496	0.387
3.37502	0.285
3.41508	0.351
3.45514	0.387
3.4952	0.371
3.53526	0.409
3.57532	0.417
3.61538	0.427
3.65543	0.433
3.69549	0.437
3.73555	0.438
3.77561	0.452
3.81567	0.457
3.85573	0.475
3.89579	0.476
3.93585	0.481
3.97591	0.478
4.01597	0.483
4.05603	0.493
4.09609	0.498
4.13615	0.501
4.17621	0.508
4.21627	0.513
4.25633	0.516
4.29638	0.518
4.33644	0.526
4.3765	0.531
4.41656	0.551
4.45662	0.556
4.49668	0.559
4.53674	0.566
4.5768	0.564
4.61686	0.557
4.65692	0.579
4.69698	0.574
4.73704	0.572
4.7771	0.575
4.81716	0.592
4.85722	0.6
4.89728	0.605
4.93733	0.615
4.97739	0.617
5.01745	0.625
5.05751	0.618
5.09757	0.602
5.13763	0.623
5.17769	0.641
5.21775	0.643
5.25781	0.636
5.29787	0.632
5.33793	0.646
5.37799	0.663
5.41805	0.678
5.45811	0.679
5.49817	0.651
5.53823	0.673
5.57828	0.689
5.61834	0.701
5.6584	0.696
5.69846	0.706
5.73852	0.712
5.77858	0.711
5.81864	0.702
5.8587	0.711
5.89876	0.707
5.93882	0.717
5.97888	0.706
6.01894	0.731
6.059	0.735
6.09906	0.739
6.13912	0.731
6.17918	0.717
6.21923	0.726
6.25929	0.742
6.29935	0.757
6.33941	0.742
6.37947	0.754
6.41953	0.772
6.45959	0.762
6.49965	0.755
6.53971	0.745
6.57977	0.729
6.61983	0.701
6.65989	0.656
6.69995	0.452
6.74001	0.366
6.78007	0.288
6.82013	0.186
6.86018	0.112
6.90024	0.13
6.9403	0.087
6.98036	0.136
7.02042	0.349
7.06048	0.448
7.10054	0.534
7.1406	0.559
7.18066	0.546
7.22072	0.387
7.26078	0.257
7.30084	0.105
7.3409	0.097
7.38096	0.212
7.42102	0.325
7.46108	0.128
7.50113	0.221
7.54119	0.371
7.58125	0.448
7.62131	0.47
7.66137	0.496
7.70143	0.58
7.74149	0.6
7.78155	0.632
7.82161	0.622
7.86167	0.645
7.90173	0.691
7.94179	0.689
7.98185	0.653
8.02191	0.615
8.06197	0.551
8.10203	0.407
8.14209	0.211
8.18214	0.11
8.2222	0.113
8.26226	0.196
8.30232	0.221
8.34238	0.26
8.38244	0.346
8.4225	0.166
8.46256	0.13
8.50262	0.227
8.54268	0.351
8.58274	0.371
8.6228	0.232
8.66286	0.148
8.70292	0.255
8.74298	0.412
8.78304	0.5
8.82309	0.579
8.86315	0.62
8.90321	0.607
8.94327	0.463
8.98333	0.377
9.02339	0.363
9.06345	0.425
9.10351	0.48
9.14357	0.45
9.18363	0.358
9.22369	0.226
9.26375	0.206
9.30381	0.333
9.34387	0.412
9.38393	0.308
9.42399	0.143
9.46404	0.072
9.5041	0.056
9.54416	0.047
9.58422	0.054
9.62428	0.102
9.66434	0.173
9.7044	0.245
9.74446	0.311
9.78452	0.369
9.82458	0.419
9.86464	0.453
9.9047	0.432
9.94476	0.452
9.98482	0.496
10.0249	0.419
10.0649	0.358
10.105	0.293
10.1451	0.283
10.1851	0.237
10.2252	0.118
10.2652	0.12
10.3053	0.232
10.3454	0.282
10.3854	0.334
10.4255	0.43
10.4655	0.475
10.5056	0.528
10.5456	0.554
10.5857	0.566
10.6258	0.566
10.6658	0.552
10.7059	0.564
10.7459	0.602
10.786	0.597
10.8261	0.424
10.8661	0.201
10.9062	0.165
10.9462	0.262
10.9863	0.41
11.0264	0.518
11.0664	0.59
11.1065	0.63
11.1465	0.651
11.1866	0.665
11.2267	0.646
11.2667	0.501
11.3068	0.348
11.3468	0.419
11.3869	0.524
11.427	0.603
11.467	0.646
11.5071	0.674
11.5471	0.709
11.5872	0.724
11.6273	0.739
11.6673	0.754
11.7074	0.767
11.7474	0.768
11.7875	0.782
11.8275	0.783
11.8676	0.792
11.9077	0.805
11.9477	0.82
11.9878	0.821
12.0278	0.834
12.0679	0.836
12.108	0.839
12.148	0.851
12.1881	0.854
12.2281	0.856
12.2682	0.858
12.3083	0.859
12.3483	0.867
12.3884	0.869
12.4284	0.874
12.4685	0.881
12.5086	0.891
12.5486	0.896
12.5887	0.9
12.6287	0.904
12.6688	0.905
12.7089	0.909
12.7489	0.91
12.789	0.907
12.829	0.909
12.8691	0.889
12.9092	0.818
12.9492	0.625
12.9893	0.311
13.0293	0.321
13.0694	0.486
13.1094	0.618
13.1495	0.706
13.1896	0.742
13.2296	0.768
13.2697	0.755
13.3097	0.688
13.3498	0.501
13.3899	0.295
13.4299	0.272
13.47	0.407
13.51	0.566
13.5501	0.668
13.5902	0.737
13.6302	0.805
13.6703	0.839
13.7103	0.859
13.7504	0.881
13.7905	0.902
13.8305	0.909
13.8706	0.91
13.9106	0.912
13.9507	0.924
13.9908	0.92
14.0308	0.881
14.0709	0.849
14.1109	0.792
14.151	0.698
14.1911	0.526
14.2311	0.311
14.2712	0.229
14.3112	0.308
14.3513	0.437
14.3913	0.503
14.4314	0.531
14.4715	0.594
14.5115	0.669
14.5516	0.727
14.5916	0.775
14.6317	0.798
14.6718	0.825
14.7118	0.844
14.7519	0.844
14.7919	0.851
14.832	0.859
14.8721	0.869
14.9121	0.867
14.9522	0.849
14.9922	0.843
15.0323	0.869
15.0724	0.887
15.1124	0.891
15.1525	0.889
15.1925	0.877
15.2326	0.849
15.2727	0.793
15.3127	0.691
15.3528	0.547
15.3928	0.475
15.4329	0.516
15.473	0.58
15.513	0.646
15.5531	0.684
15.5931	0.693
15.6332	0.706
15.6732	0.714
15.7133	0.706
15.7534	0.704
15.7934	0.707
15.8335	0.712
15.8735	0.711
15.9136	0.712
15.9537	0.712
15.9937	0.711
