Infrared Spectrum: 5-METHOXY-2(1-PHENYL-5-MERCAPTOTETRAZOLE)-QUINONE
Formula: C14 H10 N4 O3 S
CAS: 95980-60-2
State: SOLID (KBr PRESSING)
Melting point: 173-175.5 C
Class: COBLENTZ
Instrument: Not specified, most likely a prism, grating, or hybrid spectrometer.
Sampling: TRANSMISSION
Resolution: 4
Origin: EASTMAN KODAK COMPANY, RESEARCH LABORATORIES, ROCHESTER, N.Y.
MICROMETERS	TRANSMITTANCE
2.007	0.726
2.04715	0.727
2.0873	0.727
2.12745	0.729
2.1676	0.731
2.20776	0.732
2.24791	0.732
2.28806	0.732
2.32821	0.732
2.36836	0.734
2.40851	0.737
2.44866	0.737
2.48881	0.737
2.52897	0.739
2.56912	0.739
2.60927	0.74
2.64942	0.74
2.68957	0.742
2.72972	0.745
2.76987	0.747
2.81002	0.735
2.85018	0.673
2.89033	0.62
2.93048	0.592
2.97063	0.589
3.01078	0.618
3.05093	0.651
3.09108	0.674
3.13123	0.701
3.17139	0.722
3.21154	0.732
3.25169	0.732
3.29184	0.676
3.33199	0.699
3.37214	0.719
3.41229	0.722
3.45244	0.722
3.4926	0.747
3.53275	0.757
3.5729	0.76
3.61305	0.775
3.6532	0.78
3.69335	0.785
3.7335	0.79
3.77365	0.795
3.81381	0.798
3.85396	0.8
3.89411	0.801
3.93426	0.805
3.97441	0.806
4.01456	0.808
4.05471	0.81
4.09486	0.811
4.13502	0.815
4.17517	0.818
4.21532	0.818
4.25547	0.818
4.29562	0.818
4.33577	0.82
4.37592	0.823
4.41607	0.828
4.45623	0.828
4.49638	0.83
4.53653	0.833
4.57668	0.833
4.61683	0.833
4.65698	0.834
4.69713	0.834
4.73728	0.838
4.77744	0.838
4.81759	0.838
4.85774	0.838
4.89789	0.838
4.93804	0.838
4.97819	0.838
5.01834	0.839
5.05849	0.839
5.09865	0.839
5.1388	0.839
5.17895	0.841
5.2191	0.841
5.25925	0.841
5.2994	0.841
5.33955	0.843
5.3797	0.844
5.41986	0.846
5.46001	0.848
5.50016	0.848
5.54031	0.848
5.58046	0.848
5.62061	0.848
5.66076	0.848
5.70091	0.844
5.74107	0.843
5.78122	0.838
5.82137	0.808
5.86152	0.806
5.90167	0.795
5.94182	0.655
5.98197	0.169
6.02212	0.43
6.06228	0.445
6.10243	0.207
6.14258	0.48
6.18273	0.235
6.22288	0.516
6.26303	0.608
6.30318	0.534
6.34333	0.199
6.38349	0.447
6.42364	0.585
6.46379	0.731
6.50394	0.755
6.54409	0.795
6.58424	0.8
6.62439	0.797
6.66454	0.514
6.7047	0.632
6.74485	0.77
6.785	0.778
6.82515	0.773
6.8653	0.665
6.90545	0.709
6.9456	0.768
6.98575	0.734
7.02591	0.772
7.06606	0.709
7.10621	0.77
7.14636	0.767
7.18651	0.721
7.22666	0.618
7.26681	0.788
7.30696	0.78
7.34712	0.597
7.38727	0.75
7.42742	0.775
7.46757	0.767
7.50772	0.661
7.54787	0.592
7.58802	0.744
7.62817	0.764
7.66833	0.792
7.70848	0.8
7.74863	0.797
7.78878	0.797
7.82893	0.8
7.86908	0.79
7.90923	0.671
7.94938	0.735
7.98954	0.778
8.02969	0.765
8.06984	0.673
8.10999	0.546
8.15014	0.247
8.19029	0.173
8.23044	0.339
8.27059	0.29
8.31075	0.303
8.3509	0.379
8.39105	0.547
8.4312	0.618
8.47135	0.447
8.5115	0.437
8.55165	0.597
8.5918	0.666
8.63196	0.732
8.67211	0.744
8.71226	0.75
8.75241	0.755
8.79256	0.785
8.83271	0.797
8.87286	0.8
8.91301	0.798
8.95317	0.747
8.99332	0.694
9.03347	0.651
9.07362	0.754
9.11377	0.778
9.15392	0.792
9.19407	0.798
9.23422	0.803
9.27437	0.808
9.31453	0.783
9.35468	0.762
9.39483	0.78
9.43498	0.783
9.47513	0.782
9.51528	0.785
9.55543	0.788
9.59558	0.782
9.63574	0.78
9.67589	0.798
9.71604	0.808
9.75619	0.806
9.79634	0.714
9.83649	0.602
9.87664	0.566
9.91679	0.417
9.95695	0.617
9.9971	0.714
10.0372	0.742
10.0774	0.788
10.1176	0.8
10.1577	0.801
10.1979	0.79
10.238	0.785
10.2782	0.795
10.3183	0.8
10.3585	0.801
10.3986	0.801
10.4388	0.742
10.4789	0.536
10.5191	0.541
10.5592	0.716
10.5994	0.775
10.6395	0.803
10.6797	0.821
10.7198	0.834
10.76	0.843
10.8001	0.848
10.8403	0.849
10.8804	0.851
10.9206	0.853
10.9607	0.853
11.0009	0.856
11.041	0.858
11.0812	0.859
11.1213	0.856
11.1615	0.844
11.2016	0.79
11.2418	0.691
11.2819	0.541
11.3221	0.617
11.3622	0.745
11.4024	0.775
11.4425	0.792
11.4827	0.801
11.5228	0.811
11.563	0.81
11.6031	0.706
11.6433	0.636
11.6834	0.75
11.7236	0.782
11.7638	0.8
11.8039	0.803
11.8441	0.803
11.8842	0.803
11.9244	0.78
11.9645	0.765
12.0047	0.693
12.0448	0.669
12.085	0.724
12.1251	0.8
12.1653	0.811
12.2054	0.825
12.2456	0.836
12.2857	0.841
12.3259	0.846
12.366	0.849
12.4062	0.853
12.4463	0.853
12.4865	0.856
12.5266	0.858
12.5668	0.859
12.6069	0.859
12.6471	0.859
12.6872	0.859
12.7274	0.858
12.7675	0.859
12.8077	0.859
12.8478	0.853
12.888	0.831
12.9281	0.768
12.9683	0.702
13.0084	0.562
13.0486	0.323
13.0887	0.526
13.1289	0.671
13.169	0.742
13.2092	0.783
13.2493	0.801
13.2895	0.82
13.3297	0.826
13.3698	0.831
13.41	0.836
13.4501	0.841
13.4903	0.844
13.5304	0.849
13.5706	0.849
13.6107	0.843
13.6509	0.805
13.691	0.811
13.7312	0.823
13.7713	0.83
13.8115	0.834
13.8516	0.836
13.8918	0.838
13.9319	0.841
13.9721	0.841
14.0122	0.841
14.0524	0.843
14.0925	0.843
14.1327	0.843
14.1728	0.836
14.213	0.795
14.2531	0.706
14.2933	0.658
14.3334	0.65
14.3736	0.597
14.4137	0.506
14.4539	0.429
14.494	0.452
14.5342	0.607
14.5743	0.706
14.6145	0.744
14.6546	0.762
14.6948	0.77
14.7349	0.773
14.7751	0.775
14.8152	0.777
14.8554	0.777
14.8955	0.77
14.9357	0.74
14.9759	0.732
15.016	0.752
15.0562	0.742
15.0963	0.711
15.1365	0.702
15.1766	0.691
15.2168	0.679
15.2569	0.669
15.2971	0.65
15.3372	0.63
15.3774	0.623
15.4175	0.622
15.4577	0.622
15.4978	0.623
15.538	0.623
15.5781	0.627
15.6183	0.628
15.6584	0.628
15.6986	0.628
15.7387	0.628
15.7789	0.628
15.819	0.628
15.8592	0.628
15.8993	0.628
15.9395	0.628
15.9796	0.628
