Infrared Spectrum: Allyl methacrylate
Formula: C 7 H 10 O 2
CAS: 96-05-9
State: gas
Instrument: HP-GC/MS/IRD
Origin: NIST Mass Spectrometry Data Center
1/CM	ABSORBANCE
550	0.0001534
562	0.0002065
574	0.0005605
586	0.0008437
598	0.0005723
610	0.0002891
622	0.0003245
634	0.000531
646	0.0007788
658	0.0008968
670	0.0006372
682	0.0004071
694	0.0001593
706	5.9e-06
718	2.36e-05
730	5.31e-05
742	4.13e-05
754	8.85e-05
766	0.0001534
778	0.0001947
790	0.0006785
802	0.0016402
814	0.002478
826	0.0017641
838	0.0010561
850	0.0007906
862	0.0008201
874	0.0008614
886	0.0011859
898	0.001947
910	0.004012
922	0.0080181
934	0.0110153
946	0.0079355
958	0.004779
970	0.0048911
982	0.0082482
994	0.009027
1006	0.0072452
1018	0.006018
1030	0.00295
1042	0.001652
1054	0.0013098
1066	0.0013629
1078	0.0015753
1090	0.0020827
1102	0.0029736
1114	0.004838
1126	0.0101244
1138	0.0262727
1150	0.0520616
1162	0.0563037
1174	0.0336536
1186	0.0160008
1198	0.0084488
1210	0.0046256
1222	0.0028143
1234	0.0021476
1246	0.0020886
1258	0.0028556
1270	0.0053985
1282	0.0112808
1294	0.0160539
1306	0.0159359
1318	0.013865
1330	0.0062894
1342	0.0028851
1354	0.0029795
1366	0.0033807
1378	0.0030739
1390	0.0033394
1402	0.0044014
1414	0.0047082
1426	0.0039412
1438	0.003953
1450	0.0048203
1462	0.0049442
1474	0.0031919
1486	0.0016343
1498	0.0009735
1510	0.0007198
1522	0.00059
1534	0.000531
1546	0.0004897
1558	0.0004956
1570	0.0006313
1582	0.0007847
1594	0.001003
1606	0.0014396
1618	0.0021653
1630	0.0032332
1642	0.0037642
1654	0.0026196
1666	0.0015399
1678	0.0015458
1690	0.0020886
1702	0.0032273
1714	0.0074812
1726	0.0202842
1738	0.03127
1750	0.0244496
1762	0.0084724
1774	0.0027848
1786	0.00177
1798	0.0014101
1810	0.000944
1822	0.0006018
1834	0.0005251
1846	0.000649
1858	0.0008378
1870	0.0009735
1882	0.0008555
1894	0.0006136
1906	0.0004012
1918	0.0003304
1930	0.0002773
1942	0.000295
1954	0.0003422
1966	0.0003776
1978	0.0003481
1990	0.0003127
2002	0.0002183
2014	0.0001416
2026	0.0001003
2038	7.67e-05
2050	8.85e-05
2062	8.26e-05
2074	0.0001357
2086	0.0001357
2098	0.0001593
2110	0.0001416
2122	0.0001298
2134	0.0001298
2146	0.0001062
2158	5.9e-05
2170	5.9e-05
2182	4.72e-05
2194	2.95e-05
2206	5.9e-06
2218	4.13e-05
2230	4.13e-05
2242	5.9e-06
2254	5.31e-05
2266	4.72e-05
2278	5.9e-05
2290	0.0001239
2302	0.0001239
2314	0.0001475
2326	0.0001239
2338	0.0001121
2350	5.9e-05
2362	4.72e-05
2374	2.95e-05
2386	3.54e-05
2398	3.54e-05
2410	4.13e-05
2422	6.49e-05
2434	8.85e-05
2446	7.08e-05
2458	0.0001062
2470	0.0001003
2482	8.26e-05
2494	7.08e-05
2506	4.13e-05
2518	8.85e-05
2530	5.9e-05
2542	8.26e-05
2554	0.0001003
2566	0.0001298
2578	9.44e-05
2590	0.0001003
2602	8.85e-05
2614	3.54e-05
2626	6.49e-05
2638	6.49e-05
2650	9.44e-05
2662	7.08e-05
2674	8.26e-05
2686	0.000118
2698	0.0001239
2710	0.0001121
2722	0.0001475
2734	0.0001593
2746	0.0002065
2758	0.0002124
2770	0.0001888
2782	0.0002301
2794	0.0002478
2806	0.0003363
2818	0.0004012
2830	0.0004838
2842	0.0005487
2854	0.0007729
2866	0.0010443
2878	0.0014042
2890	0.0017464
2902	0.0018349
2914	0.0019765
2926	0.0028438
2938	0.0046728
2950	0.0053395
2962	0.0048026
2974	0.0044191
2986	0.0048321
2998	0.0043247
3010	0.003186
3022	0.0026078
3034	0.0021181
3046	0.0015281
3058	0.0013275
3070	0.0013688
3082	0.0018526
3094	0.0026255
3106	0.0025783
3118	0.0014219
3130	0.0005841
3142	0.0004248
3154	0.0002714
3166	0.0002537
3178	0.0002419
3190	0.0001593
3202	0.000118
3214	0.0001239
3226	0.0001652
3238	0.000118
3250	0.0001593
3262	0.0001534
3274	0.0001121
3286	0.0001121
3298	0.0001003
3310	0.0001121
3322	0.0001062
3334	0.0001416
3346	0.0001593
3358	0.0001357
3370	0.0001121
3382	0.0001357
3394	0.0001416
3406	0.0001121
3418	0.0001357
3430	0.0001829
3442	0.0002478
3454	0.0004366
3466	0.0004779
3478	0.0003481
3490	0.0003068
3502	0.000177
3514	0.000177
3526	8.85e-05
3538	8.85e-05
3550	4.13e-05
3562	5.31e-05
3574	0.0001062
3586	6.49e-05
3598	9.44e-05
3610	9.44e-05
3622	3.54e-05
3634	5.31e-05
3646	6.49e-05
3658	2.36e-05
3670	6.49e-05
3682	0
3694	4.13e-05
3706	5.31e-05
3718	0.0001062
3730	6.49e-05
3742	3.54e-05
3754	2.95e-05
3766	1.18e-05
3778	3.54e-05
3790	0.0001003
3802	4.13e-05
3814	7.67e-05
3826	5.9e-05
3838	4.72e-05
