Infrared Spectrum: 2,3-EPOXY-2,4,4-TRIMETHYL PENTANE
Formula: C8 H16 O
CAS: 96-06-0
State: LIQUID
Class: COBLENTZ
Instrument: PERKIN-ELMER
Sampling: TRANSMISSION
Path length: 0.0025 CM
Resolution: 4
Origin: STANDARD OIL OF OHIO
MICROMETERS	TRANSMITTANCE
2.027	0.984
2.06089	0.979
2.09478	0.972
2.12867	0.967
2.16256	0.962
2.19645	0.952
2.23034	0.94
2.26424	0.904
2.29813	0.887
2.33202	0.887
2.36591	0.887
2.3998	0.887
2.43369	0.887
2.46758	0.892
2.50147	0.913
2.53536	0.919
2.56925	0.909
2.60314	0.899
2.63703	0.913
2.67092	0.896
2.70482	0.887
2.73871	0.88
2.7726	0.875
2.80649	0.872
2.84038	0.872
2.87427	0.885
2.90816	0.887
2.94205	0.882
2.97594	0.877
3.00983	0.873
3.04372	0.868
3.07761	0.853
3.1115	0.844
3.1454	0.841
3.17929	0.838
3.21318	0.81
3.24707	0.72
3.28096	0.531
3.31485	0.156
3.34874	0.105
3.38263	0.098
3.41652	0.11
3.45041	0.277
3.4843	0.504
3.51819	0.664
3.55208	0.739
3.58598	0.78
3.61987	0.792
3.65376	0.821
3.68765	0.848
3.72154	0.87
3.75543	0.889
3.78932	0.894
3.82321	0.901
3.8571	0.901
3.89099	0.901
3.92488	0.911
3.95877	0.913
3.99266	0.913
4.02656	0.913
4.06045	0.919
4.09434	0.918
4.12823	0.919
4.16212	0.947
4.19601	0.95
4.2299	0.926
4.26379	0.916
4.29768	0.892
4.33157	0.906
4.36546	0.911
4.39935	0.916
4.43325	0.93
4.46714	0.933
4.50103	0.933
4.53492	0.928
4.56881	0.925
4.6027	0.925
4.63659	0.93
4.67048	0.935
4.70437	0.93
4.73826	0.936
4.77215	0.935
4.80604	0.926
4.83993	0.93
4.87383	0.931
4.90772	0.928
4.94161	0.928
4.9755	0.918
5.00939	0.933
5.04328	0.933
5.07717	0.936
5.11106	0.916
5.14495	0.936
5.17884	0.926
5.21273	0.923
5.24662	0.931
5.28051	0.938
5.31441	0.908
5.3483	0.93
5.38219	0.909
5.41608	0.936
5.44997	0.913
5.48386	0.921
5.51775	0.921
5.55164	0.885
5.58553	0.923
5.61942	0.879
5.65331	0.867
5.6872	0.843
5.72109	0.821
5.75499	0.858
5.78888	0.8
5.82277	0.89
5.85666	0.856
5.89055	0.889
5.92444	0.894
5.95833	0.884
5.99222	0.925
6.02611	0.851
6.06	0.833
6.09389	0.855
6.12778	0.863
6.16167	0.862
6.19557	0.868
6.22946	0.868
6.26335	0.887
6.29724	0.896
6.33113	0.882
6.36502	0.877
6.39891	0.865
6.4328	0.901
6.46669	0.843
6.50058	0.853
6.53447	0.833
6.56836	0.8
6.60225	0.717
6.63615	0.63
6.67004	0.48
6.70393	0.202
6.73782	0.245
6.77171	0.229
6.8056	0.201
6.83949	0.199
6.87338	0.291
6.90727	0.402
6.94116	0.448
6.97505	0.487
7.00894	0.499
7.04283	0.606
7.07673	0.642
7.11062	0.604
7.14451	0.403
7.1784	0.158
7.21229	0.12
7.24618	0.109
7.28007	0.172
7.31396	0.33
7.34785	0.507
7.38174	0.608
7.41563	0.538
7.44952	0.614
7.48341	0.741
7.51731	0.78
7.5512	0.804
7.58509	0.816
7.61898	0.827
7.65287	0.831
7.68676	0.827
7.72065	0.826
7.75454	0.814
7.78843	0.758
7.82232	0.657
7.85621	0.613
7.8901	0.645
7.92399	0.684
7.95789	0.678
7.99178	0.609
8.02567	0.422
8.05956	0.49
8.09345	0.596
8.12734	0.632
8.16123	0.599
8.19512	0.591
8.22901	0.65
8.2629	0.659
8.29679	0.589
8.33068	0.64
8.36458	0.718
8.39847	0.761
8.43236	0.77
8.46625	0.771
8.50014	0.775
8.53403	0.778
8.56792	0.783
8.60181	0.788
8.6357	0.79
8.66959	0.785
8.70348	0.77
8.73737	0.744
8.77126	0.676
8.80516	0.603
8.83905	0.505
8.87294	0.316
8.90683	0.168
8.94072	0.151
8.97461	0.204
9.0085	0.425
9.04239	0.538
9.07628	0.62
9.11017	0.7
9.14406	0.717
9.17795	0.739
9.21184	0.734
9.24574	0.705
9.27963	0.664
9.31352	0.575
9.34741	0.444
9.3813	0.27
9.41519	0.315
9.44908	0.538
9.48297	0.609
9.51686	0.681
9.55075	0.71
9.58464	0.703
9.61853	0.66
9.65242	0.676
9.68632	0.713
9.72021	0.758
9.7541	0.792
9.78799	0.804
9.82188	0.816
9.85577	0.824
9.88966	0.826
9.92355	0.826
9.95744	0.824
9.99133	0.822
10.0252	0.824
10.0591	0.827
10.093	0.831
10.1269	0.834
10.1608	0.838
10.1947	0.831
10.2286	0.826
10.2625	0.826
10.2963	0.821
10.3302	0.816
10.3641	0.797
10.398	0.752
10.4319	0.718
10.4658	0.654
10.4997	0.574
10.5336	0.54
10.5675	0.577
10.6014	0.628
10.6353	0.64
10.6691	0.642
10.703	0.643
10.7369	0.63
10.7708	0.582
10.8047	0.4
10.8386	0.339
10.8725	0.403
10.9064	0.505
10.9403	0.529
10.9742	0.492
11.0081	0.342
11.0419	0.219
11.0758	0.109
11.1097	0.114
11.1436	0.192
11.1775	0.328
11.2114	0.5
11.2453	0.587
11.2792	0.645
11.3131	0.671
11.347	0.7
11.3809	0.722
11.4147	0.739
11.4486	0.749
11.4825	0.756
11.5164	0.761
11.5503	0.766
11.5842	0.776
11.6181	0.788
11.652	0.8
11.6859	0.805
11.7198	0.812
11.7537	0.817
11.7875	0.816
11.8214	0.807
11.8553	0.805
11.8892	0.802
11.9231	0.792
11.957	0.792
11.9909	0.792
12.0248	0.778
12.0587	0.763
12.0926	0.749
12.1265	0.713
12.1603	0.647
12.1942	0.551
12.2281	0.429
12.262	0.294
12.2959	0.199
12.3298	0.214
12.3637	0.303
12.3976	0.437
12.4315	0.546
12.4654	0.603
12.4992	0.632
12.5331	0.662
12.567	0.686
12.6009	0.701
12.6348	0.722
12.6687	0.749
12.7026	0.775
12.7365	0.804
12.7704	0.824
12.8043	0.831
12.8382	0.838
12.872	0.843
12.9059	0.851
12.9398	0.851
12.9737	0.853
13.0076	0.853
13.0415	0.851
13.0754	0.844
13.1093	0.831
13.1432	0.816
13.1771	0.78
13.211	0.7
13.2448	0.609
13.2787	0.495
13.3126	0.473
13.3465	0.545
13.3804	0.647
13.4143	0.729
13.4482	0.768
13.4821	0.802
13.516	0.827
13.5499	0.841
13.5838	0.858
13.6176	0.862
13.6515	0.87
13.6854	0.868
13.7193	0.875
13.7532	0.882
13.7871	0.885
13.821	0.885
13.8549	0.892
13.8888	0.884
13.9227	0.882
13.9566	0.879
13.9904	0.873
14.0243	0.868
14.0582	0.862
14.0921	0.85
14.126	0.821
14.1599	0.8
14.1938	0.752
14.2277	0.683
14.2616	0.574
14.2955	0.478
14.3294	0.424
14.3632	0.424
14.3971	0.466
14.431	0.543
14.4649	0.611
14.4988	0.64
14.5327	0.678
14.5666	0.717
14.6005	0.735
14.6344	0.761
14.6683	0.776
14.7022	0.79
14.736	0.8
14.7699	0.802
14.8038	0.802
14.8377	0.804
14.8716	0.802
14.9055	0.798
14.9394	0.793
14.9733	0.788
15.0072	0.781
15.0411	0.776
15.0749	0.775
15.1088	0.771
15.1427	0.77
15.1766	0.761
15.2105	0.751
15.2444	0.746
15.2783	0.739
15.3122	0.732
15.3461	0.725
15.38	0.712
