Infrared Spectrum: 4,4'-Methylenebis(2-t-butyl-6-methylphenol
Formula: C 23 H 32 O 2
CAS: 96-65-1
State: gas
Origin: EPA-IR VAPOR PHASE LIBRARY
1/CM	ABSORBANCE
549.8	0.0028
559.445	0.00271
569.09	0.00238
578.734	0.00254
588.379	0.00293
598.024	0.00389
607.669	0.00464
617.313	0.00247
626.958	0.00135
636.603	0.00137
646.248	0.00114
655.893	0.00148
665.537	0.0024
675.182	0.00395
684.827	0.00361
694.472	0.00179
704.116	0.00134
713.761	0.0008189
723.406	0.00114
733.051	0.00163
742.695	0.00478
752.34	0.0067
761.985	0.00326
771.63	0.00546
781.275	0.00801
790.919	0.00942
800.564	0.00316
810.209	0.00172
819.854	0.00174
829.498	0.00257
839.143	0.00414
848.788	0.00747
858.433	0.0087
868.078	0.00742
877.722	0.00764
887.367	0.00607
897.012	0.00511
906.657	0.00395
916.301	0.00325
925.946	0.00325
935.591	0.00387
945.236	0.00478
954.88	0.00414
964.525	0.00363
974.17	0.00357
983.815	0.00274
993.46	0.00331
1003.1	0.00515
1012.75	0.00563
1022.39	0.00435
1032.04	0.00354
1041.68	0.00221
1051.33	0.00134
1060.97	0.00168
1070.62	0.00154
1080.26	0.00178
1089.91	0.00225
1099.55	0.00298
1109.2	0.00556
1118.84	0.00935
1128.49	0.01831
1138.13	0.01999
1147.78	0.01694
1157.42	0.02513
1167.07	0.04556
1176.71	0.05505
1186.36	0.03902
1196	0.03194
1205.64	0.03191
1215.29	0.04578
1224.93	0.04156
1234.58	0.0271
1244.22	0.02048
1253.87	0.01655
1263.51	0.01666
1273.16	0.0167
1282.8	0.014
1292.45	0.01424
1302.09	0.01759
1311.74	0.01858
1321.38	0.01419
1331.03	0.00716
1340.67	0.0048
1350.32	0.00543
1359.96	0.01091
1369.61	0.01667
1379.25	0.01091
1388.9	0.01135
1398.54	0.01507
1408.18	0.01131
1417.83	0.01905
1427.47	0.03641
1437.12	0.04986
1446.76	0.03982
1456.41	0.02895
1466.05	0.03038
1475.7	0.03846
1485.34	0.03434
1494.99	0.0148
1504.63	0.007
1514.28	0.00435
1523.92	0.00338
1533.57	0.00293
1543.21	0.00265
1552.86	0.00265
1562.5	0.00261
1572.15	0.00268
1581.79	0.00288
1591.44	0.00383
1601.08	0.00471
1610.73	0.00334
1620.37	0.00203
1630.01	0.00196
1639.66	0.00143
1649.3	0.00133
1658.95	0.00111
1668.59	0.00114
1678.24	0.0009814
1687.88	0.00104
1697.53	0.0009518
1707.17	0.00105
1716.82	0.00134
1726.46	0.00178
1736.11	0.00211
1745.75	0.00186
1755.4	0.00188
1765.04	0.00185
1774.69	0.00165
1784.33	0.00132
1793.98	0.0009546
1803.62	0.0008891
1813.27	0.0007678
1822.91	0.00074
1832.55	0.0006754
1842.2	0.0006454
1851.84	0.0006074
1861.49	0.0005206
1871.13	0.0005261
1880.78	0.0005513
1890.42	0.0006064
1900.07	0.000702
1909.71	0.0007962
1919.36	0.0007076
1929	0.0006115
1938.65	0.0006789
1948.29	0.0006581
1957.94	0.0007499
1967.58	0.0006632
1977.23	0.0006293
1986.87	0.0006999
1996.52	0.0007216
2006.16	0.0006302
2015.81	0.0006267
2025.45	0.0005957
2035.1	0.0004917
2044.74	0.0004765
2054.38	0.0004401
2064.03	0.000519
2073.67	0.0005139
2083.32	0.0003882
2092.96	0.0004287
2102.61	0.0004302
2112.25	0.0004861
2121.9	0.0005197
2131.54	0.0005031
2141.19	0.0005444
2150.83	0.00062
2160.48	0.0005443
2170.12	0.0005175
2179.77	0.0004227
2189.41	0.0005037
2199.06	0.0004255
2208.7	0.0004697
2218.35	0.00054
2227.99	0.0005665
2237.64	0.0004436
2247.28	0.000468
2256.92	0.0004889
2266.57	0.0005135
2276.21	0.0005391
2285.86	0.0006284
2295.5	0.0005351
2305.15	0.0006183
2314.79	0.0006145
2324.44	0.0006099
2334.08	0.000572
2343.73	0.0007584
2353.37	0.0008316
2363.02	0.0007202
2372.66	0.0008184
2382.31	0.000919
2391.95	0.0009652
2401.6	0.0009121
2411.24	0.0009376
2420.89	0.0009095
2430.53	0.0009518
2440.18	0.0008688
2449.82	0.0008494
2459.47	0.0008422
2469.11	0.0008064
2478.75	0.0008226
2488.4	0.0007341
2498.04	0.0006655
2507.69	0.0007613
2517.33	0.0006927
2526.98	0.0007616
2536.62	0.0006953
2546.27	0.0007711
2555.91	0.0008107
2565.56	0.0008768
2575.2	0.0008619
2584.85	0.0007242
2594.49	0.0008355
2604.14	0.0009257
2613.78	0.0008388
2623.43	0.0009282
2633.07	0.0009083
2642.72	0.0008964
2652.36	0.0011
2662.01	0.00103
2671.65	0.000977
2681.29	0.00107
2690.94	0.00115
2700.58	0.00121
2710.23	0.00157
2719.87	0.00196
2729.52	0.00197
2739.16	0.00227
2748.81	0.00233
2758.45	0.00205
2768.1	0.00173
2777.74	0.00196
2787.39	0.0023
2797.03	0.00252
2806.68	0.00269
2816.32	0.00335
2825.97	0.0044
2835.61	0.00633
2845.26	0.0099
2854.9	0.01462
2864.55	0.02251
2874.19	0.03232
2883.84	0.03452
2893.48	0.03145
2903.12	0.0369
2912.77	0.04849
2922.41	0.054
2932.06	0.05046
2941.7	0.04747
2951.35	0.05979
2960.99	0.08288
2970.64	0.08675
2980.28	0.0463
2989.93	0.02379
2999.57	0.02088
3009.22	0.02075
3018.86	0.0133
3028.51	0.00961
3038.15	0.0083
3047.8	0.00737
3057.44	0.00654
3067.09	0.00565
3076.73	0.00485
3086.38	0.00399
3096.02	0.00295
3105.67	0.00245
3115.31	0.00202
3124.95	0.00202
3134.6	0.0019
3144.24	0.00156
3153.89	0.00168
3163.53	0.00158
3173.18	0.00149
3182.82	0.00147
3192.47	0.00146
3202.11	0.00134
3211.76	0.00122
3221.4	0.00101
3231.05	0.0009946
3240.69	0.0009608
3250.34	0.0009478
3259.98	0.00112
3269.63	0.00113
3279.27	0.00101
3288.92	0.00106
3298.56	0.0009697
3308.21	0.00103
3317.85	0.0009911
3327.49	0.0007454
3337.14	0.0008131
3346.78	0.0007595
3356.43	0.0008402
3366.07	0.0008192
3375.72	0.00104
3385.36	0.000857
3395.01	0.00106
3404.65	0.000899
3414.3	0.00115
3423.94	0.00106
3433.59	0.0009173
3443.23	0.0009745
3452.88	0.0008677
3462.52	0.000837
3472.17	0.0007548
3481.81	0.000703
3491.46	0.0008461
3501.1	0.0005953
3510.75	0.0007654
3520.39	0.000701
3530.04	0.0006356
3539.68	0.0005941
3549.32	0.0006971
3558.97	0.0006424
3568.61	0.0007063
3578.26	0.00115
3587.9	0.00111
3597.55	0.00141
3607.19	0.00188
3616.84	0.00333
3626.48	0.00686
3636.13	0.01713
3645.77	0.03395
3655.42	0.02108
3665.06	0.0176
3674.71	0.01884
3684.35	0.01146
3694	0.00604
3703.64	0.00326
3713.29	0.00192
3722.93	0.00132
3732.58	0.00116
3742.22	0.00105
3751.86	0.0009488
3761.51	0.0007249
3771.15	0.0007192
3780.8	0.00101
3790.44	0.0006815
3800.09	0.0007473
3809.73	0.0008356
3819.38	0.0009611
3829.02	0.0009488
3838.67	0.0008086
3848.31	0.00107
3857.96	0.00104
3867.6	0.00106
3877.25	0.00113
3886.89	0.00117
3896.54	0.00108
3906.18	0.00112
3915.83	0.0009949
3925.47	0.0008997
3935.12	0.0008086
3944.76	0.0008823
3954.41	0.0005748
3964.05	0.0006991
3973.69	0.0006863
3983.34	0.0007795
3992.98	0.0006878
