Infrared Spectrum: 4,4'-Thiobis(3-methyl-6-t-butylphenol)
Formula: C22 H30 O2 S
CAS: 96-69-5
State: SOLID (SPLIT MULL), FLUOROLUBE FOR 3800-1330 CM^-^1, NUJOL FOR 1330-440 CM^-^1
Class: COBLENTZ III
Instrument: DOW KBr FOREPRISM-GRATING
Instrument parameters: BLAZED AT 3.5, 12.0, 20.0 MICRON AND CHANGED AT 5.0, 7.5, 14.9 MICRON
Sampling: TRANSMISSION
Resolution: 2
Origin: DOW CHEMICAL COMPANY
1/CM	TRANSMITTANCE
3764	0.7971
3755	0.7974
3746	0.7978
3737	0.7981
3728	0.7983
3719	0.7984
3710	0.7985
3701	0.7989
3692	0.7996
3683	0.8003
3674	0.8008
3665	0.8015
3656	0.803
3647	0.8045
3638	0.8062
3629	0.8039
3620	0.8025
3611	0.8035
3602	0.8038
3593	0.8036
3584	0.8031
3575	0.8001
3566	0.7958
3557	0.7872
3548	0.7707
3539	0.7393
3530	0.6875
3521	0.4576
3512	0.2108
3503	0.1509
3494	0.4196
3485	0.5796
3476	0.6362
3467	0.6557
3458	0.6604
3449	0.6615
3440	0.6507
3431	0.6318
3422	0.6089
3413	0.5827
3404	0.5554
3395	0.5272
3386	0.4973
3377	0.4666
3368	0.4353
3359	0.398
3350	0.3768
3341	0.3518
3332	0.3406
3323	0.333
3314	0.3318
3305	0.3466
3296	0.3666
3287	0.3946
3278	0.4315
3269	0.4684
3260	0.5053
3251	0.5421
3242	0.579
3233	0.6086
3224	0.6334
3215	0.6561
3206	0.6765
3197	0.6943
3188	0.7121
3179	0.7274
3170	0.7351
3161	0.7394
3152	0.7497
3143	0.7612
3134	0.7699
3125	0.7765
3116	0.7828
3107	0.7886
3098	0.7936
3089	0.7978
3080	0.7986
3071	0.7948
3062	0.7935
3053	0.7957
3044	0.7992
3035	0.7991
3026	0.7865
3017	0.7608
3008	0.7183
2999	0.6346
2990	0.655
2981	0.5122
2972	0.3838
2963	0.2723
2954	0.2745
2945	0.4106
2936	0.4562
2927	0.4766
2918	0.4386
2909	0.4788
2900	0.5483
2891	0.5682
2882	0.5669
2873	0.534
2864	0.553
2855	0.6593
2846	0.7096
2837	0.7475
2828	0.7686
2819	0.7872
2810	0.7987
2801	0.8038
2792	0.8087
2783	0.8112
2774	0.8132
2765	0.8148
2756	0.8151
2747	0.8154
2738	0.8154
2729	0.8148
2720	0.8131
2711	0.8125
2702	0.8126
2693	0.8162
2684	0.819
2675	0.8213
2666	0.8232
2657	0.8249
2648	0.8274
2639	0.8298
2630	0.8317
2621	0.8334
2612	0.8347
2603	0.8355
2594	0.8358
2585	0.8357
2576	0.8354
2567	0.8345
2558	0.8337
2549	0.8316
2540	0.8297
2531	0.8289
2522	0.8291
2513	0.8307
2504	0.8328
2495	0.8338
2486	0.8321
2477	0.829
2468	0.827
2459	0.827
2450	0.8284
2441	0.8296
2432	0.8305
2423	0.8314
2414	0.8313
2405	0.8309
2396	0.8304
2387	0.8288
2378	0.8176
2369	0.8388
2360	0.8409
2351	0.8301
2342	0.8303
2333	0.8283
2324	0.8321
2315	0.8318
2306	0.8316
2297	0.8318
2288	0.833
2279	0.8375
2270	0.8396
2261	0.8418
2252	0.8444
2243	0.8471
2234	0.8499
2225	0.8527
2216	0.8555
2207	0.8584
2198	0.8606
2189	0.8618
2180	0.8631
2171	0.8648
2162	0.8668
2153	0.8685
2144	0.87
2135	0.8711
2126	0.8724
2117	0.8728
2108	0.8733
2099	0.8732
2090	0.8725
2081	0.8738
2072	0.8754
2063	0.8785
2054	0.8839
2045	0.8852
2036	0.8855
2027	0.8851
2018	0.8844
2009	0.8825
2000	0.881
1991	0.8774
1982	0.882
1973	0.8818
1964	0.8821
1955	0.8882
1946	0.8838
1937	0.8808
1928	0.8792
1919	0.879
1910	0.8784
1901	0.8786
1892	0.8796
1883	0.8806
1874	0.8814
1865	0.882
1856	0.8816
1847	0.8821
1838	0.8824
1829	0.8811
1820	0.8806
1811	0.8778
1802	0.8715
1793	0.8443
1784	0.866
1775	0.8717
1766	0.8732
1757	0.8718
1748	0.8595
1739	0.8598
1730	0.841
1721	0.8061
1712	0.8115
1703	0.8253
1694	0.8484
1685	0.8592
1676	0.8696
1667	0.8754
1658	0.8709
1649	0.8718
1640	0.8661
1631	0.8616
1622	0.8515
1613	0.8214
1604	0.6739
1595	0.7848
1586	0.8342
1577	0.8168
1568	0.6893
1559	0.7165
1550	0.8126
1541	0.8296
1532	0.8306
1523	0.8323
1514	0.8154
1505	0.668
1496	0.578
1487	0.4999
1478	0.7033
1469	0.6765
1460	0.6457
1451	0.4497
1442	0.5357
1433	0.6355
1424	0.704
1415	0.7245
1406	0.7075
1397	0.4514
1388	0.1852
1379	0.1818
1370	0.3392
1361	0.574
1352	0.6284
1343	0.6556
1334	0.6868
1325	0.6818
1316	0.6266
1307	0.719
1298	0.73
1289	0.6567
1280	0.6095
1271	0.3195
1262	0.3471
1253	0.4364
1244	0.5872
1235	0.6532
1226	0.6612
1217	0.4306
1208	0.2083
1199	0.1799
1190	0.0964
1181	0.4306
1172	0.2522
1163	0.3602
1154	0.4733
1145	0.5294
1136	0.6057
1127	0.6295
1118	0.6328
1109	0.6062
1100	0.3492
1091	0.6239
1082	0.7067
1073	0.7371
1064	0.7546
1055	0.7644
1046	0.7665
1037	0.7211
1028	0.6365
1019	0.674
1010	0.6945
1001	0.7321
992	0.7042
983	0.7082
974	0.7057
965	0.7381
956	0.7721
947	0.8018
938	0.7784
929	0.7862
920	0.8217
911	0.8334
902	0.3709
893	0.7856
884	0.8354
875	0.8523
866	0.8467
857	0.8088
848	0.5299
839	0.6876
830	0.8328
821	0.8487
812	0.8568
803	0.8652
794	0.8701
785	0.8714
776	0.8634
767	0.8537
758	0.8509
749	0.8492
740	0.754
731	0.7874
722	0.741
713	0.8242
704	0.8658
695	0.8803
686	0.8693
677	0.8692
668	0.8467
659	0.7937
650	0.8847
641	0.8761
632	0.706
623	0.7824
614	0.7684
605	0.7308
596	0.7104
587	0.6377
578	0.7432
569	0.6137
560	0.7175
551	0.7626
542	0.7871
533	0.8021
524	0.8071
515	0.7543
506	0.7318
497	0.7711
488	0.814
479	0.8151
470	0.8062
461	0.7461
452	0.7253
443	0.721
