Infrared Spectrum: 6-THYMOLSULFONIC ACID
Formula: C10 H14 O4 S
CAS: 96-68-4
State: SOLID (MINERAL OIL MULL)
Melting point: 115-116 C
Class: COBLENTZ
Instrument: Not specified, most likely a prism, grating, or hybrid spectrometer.
Sampling: TRANSMISSION
Resolution: 4
Origin: WYANDOTTE CHEMICALS CORP., WYANDOTTE, MICHIGAN, USA
MICROMETERS	TRANSMITTANCE
2.031	0.876
2.06814	0.873
2.10527	0.891
2.14241	0.905
2.17954	0.899
2.21668	0.882
2.25382	0.879
2.29095	0.882
2.32809	0.904
2.36522	0.908
2.40236	0.908
2.43949	0.911
2.47663	0.919
2.51377	0.934
2.5509	0.944
2.58804	0.933
2.62517	0.939
2.66231	0.942
2.69945	0.939
2.73658	0.93
2.77372	0.851
2.81085	0.67
2.84799	0.526
2.88513	0.442
2.92226	0.386
2.9594	0.376
2.99653	0.421
3.03367	0.473
3.07081	0.515
3.10794	0.524
3.14508	0.515
3.18221	0.492
3.21935	0.453
3.25648	0.405
3.29362	0.339
3.33076	0.117
3.36789	0.047
3.40503	0.038
3.44216	0.038
3.4793	0.047
3.51644	0.13
3.55357	0.218
3.59071	0.263
3.62784	0.273
3.66498	0.263
3.70212	0.261
3.73925	0.263
3.77639	0.264
3.81352	0.27
3.85066	0.27
3.8878	0.272
3.92493	0.281
3.96207	0.278
3.9992	0.295
4.03634	0.3
4.07347	0.3
4.11061	0.306
4.14775	0.318
4.18488	0.325
4.22202	0.334
4.25915	0.346
4.29629	0.362
4.33343	0.38
4.37056	0.4
4.4077	0.386
4.44483	0.369
4.48197	0.354
4.51911	0.342
4.55624	0.329
4.59338	0.32
4.63051	0.315
4.66765	0.318
4.70479	0.317
4.74192	0.321
4.77906	0.345
4.81619	0.354
4.85333	0.363
4.89046	0.379
4.9276	0.39
4.96474	0.399
5.00187	0.413
5.03901	0.416
5.07614	0.419
5.11328	0.431
5.15042	0.436
5.18755	0.434
5.22469	0.439
5.26182	0.442
5.29896	0.441
5.3361	0.439
5.37323	0.444
5.41037	0.438
5.4475	0.433
5.48464	0.428
5.52177	0.431
5.55891	0.419
5.59605	0.439
5.63318	0.442
5.67032	0.455
5.70745	0.469
5.74459	0.476
5.78173	0.473
5.81886	0.478
5.856	0.486
5.89313	0.479
5.93027	0.478
5.96741	0.461
6.00454	0.439
6.04168	0.465
6.07881	0.504
6.11595	0.524
6.15309	0.297
6.19022	0.41
6.22736	0.555
6.26449	0.436
6.30163	0.359
6.33876	0.515
6.3759	0.622
6.41304	0.664
6.45017	0.71
6.48731	0.735
6.52444	0.739
6.56158	0.708
6.59872	0.54
6.63585	0.512
6.67299	0.623
6.71012	0.566
6.74726	0.38
6.7844	0.21
6.82153	0.198
6.85867	0.283
6.8958	0.421
6.93294	0.572
6.97008	0.651
7.00721	0.617
7.04435	0.417
7.08148	0.201
7.11862	0.277
7.15575	0.496
7.19289	0.465
7.23003	0.343
7.26716	0.476
7.3043	0.518
7.34143	0.681
7.37857	0.606
7.41571	0.476
7.45284	0.388
7.48998	0.445
7.52711	0.569
7.56425	0.643
7.60139	0.696
7.63852	0.708
7.67566	0.704
7.71279	0.64
7.74993	0.572
7.78707	0.637
7.8242	0.532
7.86134	0.264
7.89847	0.213
7.93561	0.374
7.97274	0.458
8.00988	0.416
8.04702	0.328
8.08415	0.208
8.12129	0.145
8.15842	0.154
8.19556	0.157
8.2327	0.154
8.26983	0.139
8.30697	0.116
8.3441	0.114
8.38124	0.117
8.41838	0.114
8.45551	0.114
8.49265	0.114
8.52978	0.125
8.56692	0.162
8.60406	0.179
8.64119	0.195
8.67833	0.201
8.71546	0.205
8.7526	0.193
8.78973	0.15
8.82687	0.123
8.86401	0.157
8.90114	0.165
8.93828	0.145
8.97541	0.123
9.01255	0.088
9.04969	0.082
9.08682	0.085
9.12396	0.091
9.16109	0.065
9.19823	0.052
9.23537	0.055
9.2725	0.088
9.30964	0.134
9.34677	0.16
9.38391	0.176
9.42104	0.157
9.45818	0.106
9.49532	0.071
9.53245	0.054
9.56959	0.041
9.60672	0.051
9.64386	0.065
9.681	0.082
9.71813	0.12
9.75527	0.162
9.7924	0.17
9.82954	0.123
9.86668	0.126
9.90381	0.178
9.94095	0.229
9.97808	0.264
10.0152	0.221
10.0524	0.173
10.0895	0.204
10.1266	0.256
10.1638	0.289
10.2009	0.318
10.238	0.343
10.2752	0.373
10.3123	0.414
10.3494	0.436
10.3866	0.453
10.4237	0.465
10.4609	0.476
10.498	0.5
10.5351	0.524
10.5723	0.541
10.6094	0.565
10.6465	0.58
10.6837	0.586
10.7208	0.597
10.7579	0.603
10.7951	0.594
10.8322	0.571
10.8693	0.603
10.9065	0.642
10.9436	0.665
10.9808	0.671
11.0179	0.594
11.055	0.332
11.0922	0.476
11.1293	0.636
11.1664	0.678
11.2036	0.705
11.2407	0.691
11.2778	0.682
11.315	0.741
11.3521	0.761
11.3892	0.772
11.4264	0.784
11.4635	0.794
11.5007	0.792
11.5378	0.791
11.5749	0.783
11.6121	0.693
11.6492	0.503
11.6863	0.473
11.7235	0.625
11.7606	0.732
11.7977	0.775
11.8349	0.809
11.872	0.821
11.9092	0.831
11.9463	0.848
11.9834	0.852
12.0206	0.862
12.0577	0.871
12.0948	0.871
12.132	0.874
12.1691	0.882
12.2062	0.885
12.2434	0.89
12.2805	0.893
12.3176	0.894
12.3548	0.893
12.3919	0.896
12.4291	0.893
12.4662	0.891
12.5033	0.886
12.5405	0.885
12.5776	0.879
12.6147	0.876
12.6519	0.873
12.689	0.868
12.7261	0.862
12.7633	0.857
12.8004	0.852
12.8375	0.842
12.8747	0.826
12.9118	0.8
12.949	0.713
12.9861	0.701
13.0232	0.722
13.0604	0.749
13.0975	0.763
13.1346	0.769
13.1718	0.763
13.2089	0.761
13.246	0.758
13.2832	0.753
13.3203	0.75
13.3575	0.747
13.3946	0.746
13.4317	0.743
13.4689	0.735
13.506	0.721
13.5431	0.639
13.5803	0.512
13.6174	0.407
13.6545	0.413
13.6917	0.501
13.7288	0.582
13.7659	0.631
13.8031	0.662
13.8402	0.687
13.8774	0.704
13.9145	0.719
13.9516	0.741
13.9888	0.763
14.0259	0.78
14.063	0.792
14.1002	0.801
14.1373	0.809
14.1744	0.817
14.2116	0.817
14.2487	0.821
14.2858	0.823
14.323	0.818
14.3601	0.815
14.3973	0.812
14.4344	0.804
14.4715	0.8
14.5087	0.794
14.5458	0.787
14.5829	0.778
14.6201	0.764
14.6572	0.739
14.6943	0.65
14.7315	0.637
14.7686	0.616
14.8058	0.597
14.8429	0.58
14.88	0.563
14.9172	0.552
14.9543	0.534
14.9914	0.523
15.0286	0.504
15.0657	0.475
15.1028	0.453
15.14	0.445
15.1771	0.452
15.2142	0.473
15.2514	0.482
15.2885	0.506
15.3257	0.532
15.3628	0.546
15.3999	0.558
15.4371	0.563
15.4742	0.558
15.5113	0.547
15.5485	0.53
15.5856	0.515
15.6227	0.515
15.6599	0.52
15.697	0.52
15.7341	0.524
15.7713	0.534
15.8084	0.538
15.8456	0.543
15.8827	0.549
15.9198	0.551
15.957	0.551
15.9941	0.547
