Infrared Spectrum: 2-CHLORO-5-NITROBENZENE SULFONIC ACID
Formula: C6 H4 Cl N O5 S
CAS: 96-73-1
State: SOLID (MINERAL OIL MULL)
Class: COBLENTZ
Instrument: Not specified, most likely a prism, grating, or hybrid spectrometer.
Sampling: TRANSMISSION
Resolution: 4
Origin: WYANDOTTE CHEMICALS CORP., WYANDOTTE, MICHIGAN, USA
MICROMETERS	TRANSMITTANCE
2.02	0.866
2.0609	0.874
2.10179	0.883
2.14269	0.895
2.18359	0.881
2.22449	0.89
2.26538	0.897
2.30628	0.903
2.34718	0.905
2.38807	0.914
2.42897	0.919
2.46987	0.919
2.51077	0.926
2.55166	0.946
2.59256	0.929
2.63346	0.953
2.67436	0.934
2.71525	0.909
2.75615	0.847
2.79705	0.78
2.83794	0.713
2.87884	0.665
2.91974	0.619
2.96064	0.572
3.00153	0.509
3.04243	0.461
3.08333	0.43
3.12422	0.409
3.16512	0.401
3.20602	0.32
3.24692	0.389
3.28781	0.361
3.32871	0.238
3.36961	0.113
3.41051	0.157
3.4514	0.231
3.4923	0.26
3.5332	0.499
3.57409	0.555
3.61499	0.583
3.65589	0.603
3.69679	0.634
3.73768	0.674
3.77858	0.706
3.81948	0.72
3.86037	0.737
3.90127	0.765
3.94217	0.783
3.98307	0.789
4.02396	0.792
4.06486	0.806
4.10576	0.802
4.14666	0.811
4.18755	0.811
4.22845	0.792
4.26935	0.802
4.31024	0.818
4.35114	0.845
4.39204	0.837
4.43294	0.809
4.47383	0.813
4.51473	0.816
4.55563	0.831
4.59652	0.837
4.63742	0.852
4.67832	0.864
4.71922	0.876
4.76011	0.879
4.80101	0.883
4.84191	0.891
4.88281	0.886
4.9237	0.883
4.9646	0.874
5.0055	0.871
5.04639	0.864
5.08729	0.864
5.12819	0.871
5.16909	0.859
5.20998	0.84
5.25088	0.837
5.29178	0.826
5.33267	0.802
5.37357	0.801
5.41447	0.775
5.45537	0.77
5.49626	0.73
5.53716	0.715
5.57806	0.696
5.61896	0.668
5.65985	0.648
5.70075	0.61
5.74165	0.578
5.78254	0.562
5.82344	0.53
5.86434	0.53
5.90524	0.49
5.94613	0.499
5.98703	0.516
6.02793	0.595
6.06882	0.612
6.10972	0.641
6.15062	0.626
6.19152	0.457
6.23241	0.617
6.27331	0.526
6.31421	0.571
6.35511	0.596
6.396	0.584
6.4369	0.507
6.4778	0.267
6.51869	0.2
6.55959	0.468
6.60049	0.566
6.64139	0.583
6.68228	0.6
6.72318	0.56
6.76408	0.454
6.80497	0.382
6.84587	0.308
6.88677	0.416
6.92767	0.533
6.96856	0.548
7.00946	0.542
7.05036	0.567
7.09126	0.574
7.13215	0.574
7.17305	0.552
7.21395	0.437
7.25484	0.418
7.29574	0.356
7.33664	0.13
7.37754	0.15
7.41843	0.32
7.45933	0.396
7.50023	0.444
7.54112	0.469
7.58202	0.492
7.62292	0.519
7.66382	0.497
7.70471	0.432
7.74561	0.439
7.78651	0.468
7.8274	0.485
7.8683	0.502
7.9092	0.5
7.9501	0.481
7.99099	0.401
8.03189	0.3
8.07279	0.308
8.11369	0.264
8.15458	0.228
8.19548	0.209
8.23638	0.229
8.27727	0.265
8.31817	0.303
8.35907	0.315
8.39997	0.331
8.44086	0.332
8.48176	0.336
8.52266	0.322
8.56355	0.322
8.60445	0.298
8.64535	0.271
8.68625	0.197
8.72714	0.255
8.76804	0.252
8.80894	0.336
8.84984	0.409
8.89073	0.36
8.93163	0.334
8.97253	0.31
9.01342	0.305
9.05432	0.331
9.09522	0.305
9.13612	0.291
9.17701	0.267
9.21791	0.241
9.25881	0.176
9.2997	0.109
9.3406	0.084
9.3815	0.145
9.4224	0.216
9.46329	0.259
9.50419	0.289
9.54509	0.303
9.58599	0.308
9.62688	0.31
9.66778	0.308
9.70868	0.281
9.74957	0.195
9.79047	0.121
9.83137	0.209
9.87227	0.305
9.91316	0.351
9.95406	0.379
9.99496	0.397
10.0359	0.416
10.0768	0.433
10.1176	0.444
10.1585	0.449
10.1994	0.464
10.2403	0.475
10.2812	0.487
10.3221	0.502
10.363	0.502
10.4039	0.509
10.4448	0.516
10.4857	0.524
10.5266	0.536
10.5675	0.548
10.6084	0.56
10.6493	0.576
10.6902	0.576
10.7311	0.593
10.772	0.591
10.8129	0.605
10.8538	0.605
10.8947	0.603
10.9356	0.581
10.9765	0.44
11.0174	0.605
11.0583	0.624
11.0992	0.626
11.1401	0.605
11.181	0.6
11.2219	0.547
11.2628	0.432
11.3037	0.487
11.3446	0.615
11.3855	0.655
11.4264	0.656
11.4673	0.668
11.5082	0.67
11.5491	0.686
11.5899	0.687
11.6308	0.698
11.6717	0.689
11.7126	0.692
11.7535	0.667
11.7944	0.569
11.8353	0.418
11.8762	0.574
11.9171	0.658
11.958	0.687
11.9989	0.713
12.0398	0.728
12.0807	0.727
12.1216	0.735
12.1625	0.742
12.2034	0.749
12.2443	0.747
12.2852	0.751
12.3261	0.749
12.367	0.759
12.4079	0.758
12.4488	0.759
12.4897	0.751
12.5306	0.756
12.5715	0.749
12.6124	0.754
12.6533	0.747
12.6942	0.759
12.7351	0.747
12.776	0.754
12.8169	0.732
12.8578	0.655
12.8987	0.675
12.9396	0.725
12.9805	0.735
13.0214	0.747
13.0622	0.74
13.1031	0.749
13.144	0.747
13.1849	0.753
13.2258	0.754
13.2667	0.756
13.3076	0.746
13.3485	0.758
13.3894	0.735
13.4303	0.653
13.4712	0.468
13.5121	0.409
13.553	0.584
13.5939	0.703
13.6348	0.737
13.6757	0.771
13.7166	0.771
13.7575	0.778
13.7984	0.782
13.8393	0.799
13.8802	0.785
13.9211	0.799
13.962	0.797
14.0029	0.802
14.0438	0.804
14.0847	0.799
14.1256	0.787
14.1665	0.771
14.2074	0.768
14.2483	0.787
14.2892	0.792
14.3301	0.79
14.371	0.771
14.4119	0.759
14.4528	0.737
14.4937	0.713
14.5345	0.67
14.5754	0.614
14.6163	0.548
14.6572	0.521
14.6981	0.579
14.739	0.663
14.7799	0.725
14.8208	0.749
14.8617	0.753
14.9026	0.753
14.9435	0.754
14.9844	0.727
15.0253	0.692
15.0662	0.638
15.1071	0.624
15.148	0.648
15.1889	0.675
15.2298	0.694
15.2707	0.698
15.3116	0.694
15.3525	0.71
15.3934	0.692
15.4343	0.698
15.4752	0.68
15.5161	0.687
15.557	0.675
15.5979	0.687
15.6388	0.677
15.6797	0.674
15.7206	0.66
15.7615	0.658
15.8024	0.643
15.8433	0.639
15.8842	0.634
15.9251	0.622
15.966	0.622
