Infrared Spectrum: Mepivacaine
Formula: C 15 H 22 N 2 O
CAS: 96-88-8
State: gas
Instrument: HP-GC/MS/IRD
Origin: NIST Mass Spectrometry Data Center
1/CM	ABSORBANCE
550	0.00035
562	0.000248
574	0.000233
586	0.000347
598	0.000188
610	0.000186
622	0.000314
634	0.000569
646	0.00031
658	0.00012
670	0.000112
682	0
694	2e-05
706	0.000235
718	0.000132
730	7e-05
742	6.6e-05
754	0.000971
766	0.00206
778	0.000597
790	0.000163
802	1e-05
814	5.8e-05
826	0.000254
838	0.000267
850	9.9e-05
862	6.3e-05
874	0.000212
886	0.000239
898	3.5e-05
910	9.6e-05
922	0.0001
934	0.000137
946	0.000296
958	0.000191
970	0.000125
982	0.000236
994	0.000407
1006	0.000303
1018	0.000443
1030	0.0012
1042	0.00082
1054	0.00053
1066	0.000381
1078	0.000577
1090	0.000935
1102	0.001298
1114	0.001621
1126	0.001047
1138	0.001071
1150	0.001022
1162	0.000787
1174	0.000544
1186	0.000685
1198	0.00096
1210	0.001628
1222	0.001306
1234	0.000687
1246	0.000605
1258	0.001055
1270	0.001802
1282	0.001498
1294	0.000975
1306	0.000794
1318	0.000694
1330	0.000654
1342	0.000547
1354	0.000578
1366	0.000744
1378	0.000994
1390	0.000704
1402	0.000767
1414	0.00107
1426	0.001792
1438	0.003007
1450	0.005143
1462	0.006799
1474	0.009078
1486	0.009335
1498	0.004856
1510	0.002623
1522	0.001655
1534	0.00116
1546	0.000785
1558	0.00058
1570	0.000473
1582	0.000499
1594	0.000499
1606	0.000358
1618	0.000295
1630	0.000302
1642	0.000334
1654	0.000345
1666	0.000471
1678	0.000688
1690	0.001324
1702	0.0036
1714	0.006745
1726	0.003928
1738	0.001284
1750	0.000557
1762	0.000381
1774	0.000277
1786	0.000133
1798	0.000139
1810	0.000106
1822	8.3e-05
1834	0.000126
1846	0.000107
1858	8.2e-05
1870	6.2e-05
1882	6e-05
1894	5.7e-05
1906	9.8e-05
1918	0.000148
1930	0.000109
1942	5e-05
1954	2.3e-05
1966	2.9e-05
1978	3e-05
1990	4.5e-05
2002	1.9e-05
2014	4.7e-05
2026	2.7e-05
2038	5.2e-05
2050	4e-05
2062	5e-05
2074	2.4e-05
2086	3.1e-05
2098	2.2e-05
2110	5e-05
2122	5.8e-05
2134	3e-05
2146	5.1e-05
2158	5.1e-05
2170	4.1e-05
2182	2.2e-05
2194	3.1e-05
2206	4.1e-05
2218	1.9e-05
2230	1.5e-05
2242	2e-06
2254	5.1e-05
2266	5.6e-05
2278	9e-05
2290	8.1e-05
2302	5.5e-05
2314	4.9e-05
2326	3.3e-05
2338	4.6e-05
2350	2.7e-05
2362	4e-05
2374	3.2e-05
2386	3.9e-05
2398	3.5e-05
2410	4.9e-05
2422	4.5e-05
2434	4.1e-05
2446	3.8e-05
2458	5.3e-05
2470	4.6e-05
2482	6.4e-05
2494	4.7e-05
2506	4e-05
2518	7.6e-05
2530	5.3e-05
2542	8.7e-05
2554	6.4e-05
2566	6.3e-05
2578	9.7e-05
2590	9.9e-05
2602	0.000112
2614	9.9e-05
2626	0.000132
2638	0.000171
2650	0.000208
2662	0.000227
2674	0.000243
2686	0.000253
2698	0.000328
2710	0.000465
2722	0.000588
2734	0.000466
2746	0.000411
2758	0.000471
2770	0.000717
2782	0.001167
2794	0.00221
2806	0.002457
2818	0.001547
2830	0.001764
2842	0.001355
2854	0.001949
2866	0.002999
2878	0.002295
2890	0.001889
2902	0.001977
2914	0.002518
2926	0.004119
2938	0.00682
2950	0.008217
2962	0.003753
2974	0.002173
2986	0.001654
2998	0.001217
3010	0.00077
3022	0.000866
3034	0.00093
3046	0.00116
3058	0.001247
3070	0.001054
3082	0.000673
3094	0.000355
3106	0.000253
3118	0.000149
3130	0.000101
3142	8.2e-05
3154	0.000125
3166	0.000101
3178	9.1e-05
3190	3.7e-05
3202	9.3e-05
3214	7e-05
3226	0.000108
3238	7.9e-05
3250	9.1e-05
3262	0.000127
3274	0.000127
3286	0.000165
3298	0.000211
3310	0.000238
3322	0.000426
3334	0.000497
3346	0.000548
3358	0.000639
3370	0.000723
3382	0.001396
3394	0.000999
3406	0.000447
3418	0.000205
3430	0.000198
3442	0.000181
3454	0.000121
3466	6.2e-05
3478	5.8e-05
3490	4.3e-05
3502	3.4e-05
3514	2.1e-05
3526	1.1e-05
3538	3.9e-05
3550	4e-06
3562	5e-05
3574	3.4e-05
3586	6.3e-05
3598	3.7e-05
3610	2.6e-05
3622	1.7e-05
3634	3.2e-05
3646	2.3e-05
3658	4.1e-05
3670	6.1e-05
3682	4.6e-05
3694	3.8e-05
3706	4.7e-05
3718	6.9e-05
3730	5.5e-05
3742	7.5e-05
3754	3.7e-05
3766	6e-05
3778	4.4e-05
3790	5.7e-05
3802	7.2e-05
3814	4.9e-05
3826	6.6e-05
3838	6.6e-05
