Infrared Spectrum: 2-(Diisopropylamino)ethanol
Formula: C 8 H 19 N O
CAS: 96-80-0
State: liquid
Instrument: Bruker Tensor 27 FTIR
Resolution: 0.4821395
Origin: Pacific Northwest National Laboratory Under IARPA Contract
1/cm	dispersion index
7797.62	1.42868
7779.06	1.4287
7760.5	1.42869
7741.94	1.42868
7723.38	1.42867
7704.81	1.42866
7686.25	1.42865
7667.69	1.42864
7649.13	1.42863
7630.57	1.42861
7612.01	1.4286
7593.44	1.42858
7574.88	1.42857
7556.32	1.42856
7537.76	1.42855
7519.2	1.42853
7500.64	1.42852
7482.07	1.42851
7463.51	1.42849
7444.95	1.42848
7426.39	1.42846
7407.83	1.42844
7389.26	1.42843
7370.7	1.42841
7352.14	1.42839
7333.58	1.42838
7315.02	1.42836
7296.46	1.42835
7277.89	1.42833
7259.33	1.42831
7240.77	1.42829
7222.21	1.42827
7203.65	1.42825
7185.09	1.42823
7166.52	1.42821
7147.96	1.42819
7129.4	1.42816
7110.84	1.42814
7092.28	1.42811
7073.71	1.42809
7055.15	1.42806
7036.59	1.42804
7018.03	1.42801
6999.47	1.42798
6980.91	1.42795
6962.34	1.42792
6943.78	1.42789
6925.22	1.42785
6906.66	1.42781
6888.1	1.42775
6869.54	1.42769
6850.97	1.4277
6832.41	1.42773
6813.85	1.42769
6795.29	1.42767
6776.73	1.42765
6758.16	1.42763
6739.6	1.42758
6721.04	1.42755
6702.48	1.42752
6683.92	1.42746
6665.36	1.42741
6646.79	1.42737
6628.23	1.42733
6609.67	1.42728
6591.11	1.42722
6572.55	1.42717
6553.99	1.42711
6535.42	1.42705
6516.86	1.42699
6498.3	1.42693
6479.74	1.42687
6461.18	1.4268
6442.61	1.42673
6424.05	1.42665
6405.49	1.42658
6386.93	1.4265
6368.37	1.42641
6349.81	1.42632
6331.24	1.42625
6312.68	1.42618
6294.12	1.42611
6275.56	1.42602
6257	1.42592
6238.44	1.4258
6219.87	1.42568
6201.31	1.42554
6182.75	1.42539
6164.19	1.42522
6145.63	1.425
6127.06	1.4247
6108.5	1.42447
6089.94	1.42466
6071.38	1.42447
6052.82	1.42477
6034.26	1.42468
6015.69	1.42447
5997.13	1.42412
5978.57	1.42387
5960.01	1.42377
5941.45	1.42348
5922.89	1.42335
5904.32	1.4232
5885.76	1.42286
5867.2	1.42248
5848.64	1.42204
5830.08	1.42156
5811.51	1.42099
5792.95	1.42037
5774.39	1.41958
5755.83	1.41861
5737.27	1.41741
5718.71	1.41577
5700.14	1.4136
5681.58	1.4106
5663.02	1.4075
5644.46	1.40657
5625.9	1.41026
5607.34	1.41619
5588.77	1.4206
5570.21	1.42404
5551.65	1.42664
5533.09	1.42781
5514.53	1.42749
5495.96	1.42606
5477.4	1.42378
5458.84	1.42023
5440.28	1.41497
5421.72	1.40601
5403.16	1.38298
5384.59	1.37046
5366.03	1.44896
5347.47	1.4493
5328.91	1.46815
5310.35	1.45958
5291.79	1.45713
5273.22	1.45101
5254.66	1.44707
5236.1	1.44483
5217.54	1.44212
5198.98	1.44267
5180.41	1.44053
5161.85	1.43901
5143.29	1.43781
5124.73	1.43703
5106.17	1.43614
5087.61	1.43529
5069.04	1.43463
5050.48	1.43373
5031.92	1.4331
5013.36	1.43249
4994.8	1.43192
4976.24	1.43111
4957.67	1.43035
4939.11	1.42993
4920.55	1.42954
4901.99	1.42873
4883.43	1.42777
4864.86	1.42705
4846.3	1.42633
4827.74	1.42547
4809.18	1.42426
4790.62	1.42296
4772.06	1.42154
4753.49	1.42024
4734.93	1.41852
4716.37	1.41637
4697.81	1.41335
4679.25	1.40867
4660.69	1.40091
4642.12	1.37618
4623.56	1.4165
4605	1.38935
4586.44	1.4282
4567.88	1.433
4549.31	1.43036
4530.75	1.42376
4512.19	1.4051
4493.63	1.41739
4475.07	1.44487
4456.51	1.45227
4437.94	1.41196
4419.38	1.45333
4400.82	1.50378
4382.26	1.4948
4363.7	1.47051
4345.14	1.45787
4326.57	1.4731
4308.01	1.46344
4289.45	1.45466
4270.89	1.45717
4252.33	1.45192
4233.76	1.45545
4215.2	1.44745
4196.64	1.43762
4178.08	1.44911
4159.52	1.45423
4140.96	1.46822
4122.39	1.45558
4103.83	1.45775
4085.27	0.000278141
4066.71	0.000277149
4048.15	0.000275161
4029.58	0.000275161
4011.02	0.000270194
3992.46	0.000269202
3973.9	0.000273175
3955.34	0.000275161
3936.78	0.000277149
3918.21	0.000281121
3899.65	0.000302976
3881.09	0.000340724
3862.53	0.000348671
3843.97	0.000362577
3825.41	0.000380457
3806.84	0.00037251
3788.28	0.000380457
3769.72	0.000373504
3751.16	0.000382445
3732.6	0.000386418
3714.03	0.000377478
3695.47	0.000400325
3676.91	0.000429132
3658.35	0.000437079
3639.79	0.000453967
3621.23	0.000465886
3602.66	0.0004639
3584.1	0.00045794
3565.54	0.000451979
3546.98	0.000445026
3528.42	0.000433105
3509.86	0.000413238
3491.29	0.000398337
3472.73	0.000386418
3454.17	0.000379464
3435.61	0.000380457
3417.05	0.000385425
3398.48	0.000393372
3379.92	0.000397345
3361.36	0.000397345
3342.8	0.000392378
3324.24	0.000386418
3305.68	0.000383437
3287.11	0.000383437
3268.55	0.000381451
3249.99	0.000371518
3231.43	0.000363571
3212.87	0.000370524
3194.31	0.000413238
3175.74	0.00070926
3157.18	0.00138077
3138.62	0.00155958
3120.06	0.00123177
3101.5	0.0012119
3082.93	0.0012715
3064.37	0.00111257
3045.81	0.000880119
3027.25	0.000976474
3008.69	0.000789723
2990.13	0.000653632
2971.56	0.000657606
2953	0.00069734
2934.44	0.00060297
2915.88	0.000542375
2897.32	0.000517542
2878.76	0.000515554
2860.19	0.000513568
2841.63	0.000487741
2823.07	0.000492707
2804.51	0.000493701
2785.95	0.000503634
2767.38	0.000510588
2748.82	0.000493701
2730.26	0.000521515
2711.7	0.000554296
2693.14	0.000616877
2674.58	0.00070032
2656.01	0.000871178
2637.45	0.00111257
2618.89	0.00125164
2600.33	0.00126157
2581.77	0.00117217
2563.21	0.00107283
2544.64	0.000985415
2526.08	0.000940714
2507.52	0.000914885
2488.96	0.000914885
2470.4	0.000929787
2451.83	0.00102316
2433.27	0.00154964
2414.71	0.00408272
2396.15	0.00754955
2377.59	0.00704293
2359.03	0.0093972
2340.46	0.00687406
2321.9	0.00497674
2303.34	0.00384431
2284.78	0.00508601
2266.22	0.00586083
2247.66	0.00563236
2229.09	0.00644692
2210.53	0.00553302
2191.97	0.00443039
2173.41	0.0036655
2154.85	0.00328803
2136.28	0.00295028
2117.72	0.0024536
2099.16	0.00261254
2080.6	0.00194699
2062.04	0.00197679
2043.48	0.00241387
2024.91	0.00398338
2006.35	0.00807603
1987.79	0.0199666
1969.23	0.0500654
1950.67	0.107283
1932.11	0.175825
1913.54	0.210593
1894.98	0.210593
1876.42	0.200659
1857.86	0.180792
1839.3	0.151984
1820.73	0.123177
1802.17	0.0982435
1783.61	0.0782769
1765.05	0.0621844
1746.49	0.0522508
1727.93	0.0487741
1709.36	0.0641712
1690.8	0.633765
1672.24	0.543369
1653.68	0.374497
1635.12	0.455953
1616.56	0.2245
1597.99	0.12715
1579.43	0.0645685
1560.87	0.0507608
1542.31	0.0385424
1523.75	0.0303969
1505.18	0.0443039
1486.62	0.0193706
1468.06	0.0157945
1449.5	0.0138077
1430.94	0.0129137
1412.38	0.0101323
1393.81	0.00861245
1375.25	0.00730121
1356.69	0.00541382
1338.13	0.00645685
1319.57	0.00600984
1301.01	0.00520522
1282.44	0.0034271
1263.88	0.0046092
1245.32	0.00748001
1226.76	0.00633765
1208.2	0.00340723
1189.63	0.00273174
1171.07	0.00468867
1152.51	0.00530455
1133.95	0.00517541
1115.39	0.0033377
1096.83	0.00423172
1078.26	0.0069436
1059.7	0.00964554
1041.14	0.011821
1022.58	0.0125164
1004.02	0.0141057
985.455	0.0164898
966.894	0.0254301
948.332	0.0667539
929.77	0.456946
911.208	0.226486
892.647	0.736081
874.085	0.207613
855.523	0.22748
836.961	0.214566
818.399	0.299995
799.838	0.679459
781.276	0.565223
762.714	0.527475
744.152	0.394365
725.591	0.795683
707.029	0.402311
688.467	0.24834
669.905	0.070032
651.344	0.0335756
632.782	0.149998
614.22	0.0367544
595.658	0.0263241
577.096	0.0814557
558.535	0.0393371
539.973	0.0692373
521.411	0.0191719
502.849	0.0540389
484.288	0.142051
465.726	0.147018
447.164	0.154964
428.602	0.0070032
410.041	0.0884092
