Infrared Spectrum: 4-Methoxy-2-nitroaniline
Formula: C 7 H 8 N 2 O 3
CAS: 96-96-8
State: gas
Origin: EPA-IR VAPOR PHASE LIBRARY
1/CM	ABSORBANCE
549.8	0.0126
559.445	0.01223
569.09	0.01206
578.734	0.01068
588.379	0.00987
598.024	0.00974
607.669	0.01027
617.313	0.01075
626.958	0.01112
636.603	0.01155
646.248	0.01172
655.893	0.01164
665.537	0.01212
675.182	0.01353
684.827	0.01299
694.472	0.01124
704.116	0.01012
713.761	0.01002
723.406	0.00963
733.051	0.01017
742.695	0.01132
752.34	0.01514
761.985	0.02322
771.63	0.02989
781.275	0.02878
790.919	0.02003
800.564	0.02212
810.209	0.03474
819.854	0.03138
829.498	0.01659
839.143	0.01038
848.788	0.01103
858.433	0.0135
868.078	0.01196
877.722	0.01125
887.367	0.00993
897.012	0.00815
906.657	0.00843
916.301	0.01024
925.946	0.01023
935.591	0.00754
945.236	0.00564
954.88	0.00487
964.525	0.00493
974.17	0.0053
983.815	0.00602
993.46	0.00665
1003.1	0.00787
1012.75	0.01185
1022.39	0.02081
1032.04	0.03755
1041.68	0.04508
1051.33	0.03062
1060.97	0.01633
1070.62	0.01158
1080.26	0.01105
1089.91	0.01236
1099.55	0.01169
1109.2	0.00857
1118.84	0.00617
1128.49	0.00628
1138.13	0.00959
1147.78	0.01955
1157.42	0.02235
1167.07	0.01509
1176.71	0.01327
1186.36	0.01306
1196	0.0128
1205.64	0.01705
1215.29	0.03071
1224.93	0.0645
1234.58	0.105
1244.22	0.11108
1253.87	0.08995
1263.51	0.06645
1273.16	0.05568
1282.8	0.05862
1292.45	0.04868
1302.09	0.02974
1311.74	0.02516
1321.38	0.04048
1331.03	0.06145
1340.67	0.07384
1350.32	0.07577
1359.96	0.05771
1369.61	0.03038
1379.25	0.01473
1388.9	0.01009
1398.54	0.01119
1408.18	0.0193
1417.83	0.02997
1427.47	0.02952
1437.12	0.02452
1446.76	0.02592
1456.41	0.02363
1466.05	0.02602
1475.7	0.03007
1485.34	0.04222
1494.99	0.05339
1504.63	0.06335
1514.28	0.11978
1523.92	0.25175
1533.57	0.26441
1543.21	0.11974
1552.86	0.04829
1562.5	0.04344
1572.15	0.05523
1581.79	0.04971
1591.44	0.03582
1601.08	0.03062
1610.73	0.0232
1620.37	0.01811
1630.01	0.01762
1639.66	0.01792
1649.3	0.01363
1658.95	0.00804
1668.59	0.00555
1678.24	0.00459
1687.88	0.00398
1697.53	0.00363
1707.17	0.00362
1716.82	0.00335
1726.46	0.00301
1736.11	0.00292
1745.75	0.00301
1755.4	0.00321
1765.04	0.00291
1774.69	0.00241
1784.33	0.00192
1793.98	0.00177
1803.62	0.00176
1813.27	0.00176
1822.91	0.00167
1832.55	0.00157
1842.2	0.00159
1851.84	0.00171
1861.49	0.00191
1871.13	0.00213
1880.78	0.00242
1890.42	0.00219
1900.07	0.0017
1909.71	0.00146
1919.36	0.00158
1929	0.00141
1938.65	0.00133
1948.29	0.00144
1957.94	0.0014
1967.58	0.0014
1977.23	0.00142
1986.87	0.00142
1996.52	0.0015
2006.16	0.00163
2015.81	0.0018
2025.45	0.00183
2035.1	0.0018
2044.74	0.00177
2054.38	0.00178
2064.03	0.00191
2073.67	0.00193
2083.32	0.0019
2092.96	0.00178
2102.61	0.00155
2112.25	0.00144
2121.9	0.0013
2131.54	0.00118
2141.19	0.00128
2150.83	0.00132
2160.48	0.00135
2170.12	0.00123
2179.77	0.00107
2189.41	0.00108
2199.06	0.0009954
2208.7	0.0009419
2218.35	0.0009793
2227.99	0.000737
2237.64	0.0007311
2247.28	0.0007767
2256.92	0.0008322
2266.57	0.00101
2276.21	0.0009916
2285.86	0.001
2295.5	0.0009194
2305.15	0.00105
2314.79	0.00114
2324.44	0.00116
2334.08	0.00126
2343.73	0.00131
2353.37	0.00123
2363.02	0.0011
2372.66	0.0009967
2382.31	0.00114
2391.95	0.00121
2401.6	0.00138
2411.24	0.00146
2420.89	0.00145
2430.53	0.00129
2440.18	0.00115
2449.82	0.00113
2459.47	0.0011
2469.11	0.00115
2478.75	0.00126
2488.4	0.00111
2498.04	0.00112
2507.69	0.00106
2517.33	0.0008781
2526.98	0.0009615
2536.62	0.0008788
2546.27	0.000954
2555.91	0.00104
2565.56	0.00105
2575.2	0.00105
2584.85	0.00106
2594.49	0.00127
2604.14	0.0013
2613.78	0.00124
2623.43	0.00114
2633.07	0.0013
2642.72	0.00131
2652.36	0.00145
2662.01	0.00119
2671.65	0.00109
2681.29	0.00111
2690.94	0.0009525
2700.58	0.0007375
2710.23	0.0008773
2719.87	0.000907
2729.52	0.00109
2739.16	0.00101
2748.81	0.00106
2758.45	0.00112
2768.1	0.00153
2777.74	0.00161
2787.39	0.00181
2797.03	0.00223
2806.68	0.00296
2816.32	0.00388
2825.97	0.00495
2835.61	0.00893
2845.26	0.01293
2854.9	0.01055
2864.55	0.00674
2874.19	0.00552
2883.84	0.00564
2893.48	0.00667
2903.12	0.00852
2912.77	0.0108
2922.41	0.01116
2932.06	0.01211
2941.7	0.01599
2951.35	0.01788
2960.99	0.01529
2970.64	0.0105
2980.28	0.00769
2989.93	0.00731
2999.57	0.01045
3009.22	0.0161
3018.86	0.01252
3028.51	0.00689
3038.15	0.00798
3047.8	0.00804
3057.44	0.00542
3067.09	0.0049
3076.73	0.0058
3086.38	0.00561
3096.02	0.00423
3105.67	0.00351
3115.31	0.00266
3124.95	0.00176
3134.6	0.00117
3144.24	0.0009828
3153.89	0.0009438
3163.53	0.0007986
3173.18	0.00112
3182.82	0.0009347
3192.47	0.0008624
3202.11	0.0007187
3211.76	0.0007045
3221.4	0.0006595
3231.05	0.0005849
3240.69	0.0006108
3250.34	0.00046
3259.98	0.0004389
3269.63	0.0002776
3279.27	0.0004245
3288.92	0.0002946
3298.56	0.0002026
3308.21	0.0005122
3317.85	0.0003749
3327.49	0.0005105
3337.14	0.0004082
3346.78	0.0007689
3356.43	0.0008367
3366.07	0.00145
3375.72	0.00198
3385.36	0.00433
3395.01	0.01271
3404.65	0.02583
3414.3	0.02272
3423.94	0.00798
3433.59	0.00263
3443.23	0.00187
3452.88	0.00151
3462.52	0.00175
3472.17	0.00234
3481.81	0.00362
3491.46	0.00637
3501.1	0.01037
3510.75	0.0151
3520.39	0.01803
3530.04	0.01509
3539.68	0.00851
3549.32	0.00356
3558.97	0.00164
3568.61	0.00103
3578.26	0.0008474
3587.9	0.0006795
3597.55	0.0005675
3607.19	0.0004152
3616.84	0.0006106
3626.48	0.0006653
3636.13	0.0004942
3645.77	0.0004004
3655.42	0.000364
3665.06	0.0001792
3674.71	0.0001936
3684.35	0.0002871
3694	0.0004256
3703.64	7.54e-05
3713.29	0.0002025
3722.93	0.0005217
3732.58	0.0005119
3742.22	0.0005157
3751.86	0.0004983
3761.51	0.0003895
3771.15	0.0003197
3780.8	0.0004686
3790.44	0.0004305
3800.09	0.0003537
3809.73	6.938e-05
3819.38	0.0004192
3829.02	0.0001228
3838.67	0.0005378
3848.31	0.0003561
3857.96	0.0005573
3867.6	0.0004318
3877.25	0.0006534
3886.89	0.0004509
3896.54	0.0004842
3906.18	0.0004648
3915.83	0.0007215
3925.47	0.0006483
3935.12	0.0005387
3944.76	0.0003007
3954.41	0.0004419
3964.05	0.0005768
3973.69	0.0006898
3983.34	0.0005874
3992.98	0.000678
