Infrared Spectrum: Androst-4-ene-16Beta-proionic acid, 17Beta-hydroxy-3-oxo-, Delta-lactone
Formula: C22 H30 O3
CAS: 96065-28-0
State: SOLUTION (7% CHCl3 FOR 2.5-12.5 MICRON) VS SOLVENT
Melting point: 243-244 C
Class: COBLENTZ
Instrument: PERKIN-ELMER 21 (GRATING)
Instrument parameters: FILTER AT ABOUT 10 MICRONS
Path length: 0.01 CM
Resolution: 2
Origin: ABBOTT LABORATORIES
1/CM	TRANSMITTANCE
799	1.0115
808	0.9707
817	0.9193
826	0.8495
835	0.8875
844	0.8851
853	0.8248
862	0.684
871	0.736
880	0.8687
889	0.8686
898	0.8518
907	0.8411
916	0.8219
925	0.7553
934	0.5919
943	0.7641
952	0.7965
961	0.695
970	0.836
979	0.8294
988	0.8019
997	0.7651
1006	0.7098
1015	0.5366
1024	0.4959
1033	0.7208
1042	0.6365
1051	0.6984
1060	0.5108
1069	0.2635
1078	0.629
1087	0.7445
1096	0.6706
1105	0.6915
1114	0.7165
1123	0.6925
1132	0.6019
1141	0.6218
1150	0.7336
1159	0.5686
1168	0.2191
1177	0.4066
1186	0.5046
1195	0.3993
1204	0.3993
1213	0.3995
1222	0.3997
1231	0.3999
1240	0.3297
1249	0.2547
1258	0.5022
1267	0.5951
1276	0.7503
1285	0.7952
1294	0.824
1303	0.7845
1312	0.7355
1321	0.4269
1330	0.4239
1339	0.573
1348	0.5511
1357	0.5253
1366	0.5655
1375	0.6605
1384	0.6885
1393	0.7812
1402	0.7457
1411	0.6744
1420	0.6879
1429	0.7184
1438	0.5949
1447	0.6402
1456	0.7065
1465	0.8577
1474	0.8921
1483	0.9111
1492	0.9411
1501	0.9547
1510	0.9552
1519	0.9519
1528	0.9331
1537	0.924
1546	0.9084
1555	0.9061
1564	0.9023
1573	0.8922
1582	0.8736
1591	0.842
1600	0.6512
1609	0.563
1618	0.6621
1627	0.5994
1636	0.407
1645	0.1327
1654	0.0755
1663	0.1914
1672	0.4376
1681	0.5219
1690	0.3849
1699	0.1874
1708	0.054
1717	0.056
1726	0.1542
1735	0.4093
1744	0.5983
1753	0.7348
1762	0.8055
1771	0.8426
1780	0.873
1789	0.8824
1798	0.8896
1807	0.8963
1816	0.9031
1825	0.9069
1834	0.9108
1843	0.9144
1852	0.9183
1861	0.9258
1870	0.9262
1879	0.9262
1888	0.9261
1897	0.9265
1906	0.9271
1915	0.9274
1924	0.9275
1933	0.9276
1942	0.9276
1951	0.9274
1960	0.9272
1969	0.927
1978	0.9268
1987	0.9267
1996	0.9265
2005	0.9263
2014	0.9261
2023	0.9258
2032	0.9256
2041	0.9254
2050	0.9255
2059	0.9256
2068	0.9258
2077	0.9259
2086	0.9261
2095	0.9262
2104	0.9262
2113	0.9261
2122	0.9261
2131	0.9261
2140	0.926
2149	0.926
2158	0.9259
2167	0.9259
2176	0.9258
2185	0.9258
2194	0.9259
2203	0.9262
2212	0.9265
2221	0.9269
2230	0.9272
2239	0.9275
2248	0.9274
2257	0.9272
2266	0.9273
2275	0.9311
2284	0.9388
2293	0.9405
2302	0.9407
2311	0.9404
2320	0.9402
2329	0.9402
2338	0.9401
2347	0.9402
2356	0.9404
2365	0.9411
2374	0.9221
2383	0.9105
2392	0.9007
2401	0.8952
2410	0.892
2419	0.8901
2428	0.8895
2437	0.8904
2446	0.8924
2455	0.8958
2464	0.8993
2473	0.9017
2482	0.9024
2491	0.903
2500	0.9034
2509	0.9036
2518	0.9036
2527	0.9035
2536	0.9035
2545	0.9034
2554	0.9032
2563	0.9031
2572	0.9029
2581	0.9025
2590	0.9022
2599	0.9019
2608	0.9016
2617	0.9013
2626	0.901
2635	0.9006
2644	0.9
2653	0.8992
2662	0.8985
2671	0.8971
2680	0.8956
2689	0.894
2698	0.8919
2707	0.8895
2716	0.8871
2725	0.8843
2734	0.8808
2743	0.8774
2752	0.8729
2761	0.8679
2770	0.8617
2779	0.8538
2788	0.8439
2797	0.8329
2806	0.8101
2815	0.7632
2824	0.704
2833	0.645
2842	0.5865
2851	0.5386
2860	0.5212
2869	0.5038
2878	0.4812
2887	0.4382
2896	0.3955
2905	0.353
2914	0.3282
2923	0.3271
2932	0.3297
2941	0.3771
2950	0.4371
2959	0.4966
2968	0.5558
2977	0.6146
2986	0.6731
2995	0.7313
3004	0.7891
3013	0.8548
3022	0.8881
3031	0.9015
3040	0.9101
3049	0.9162
3058	0.9199
3067	0.9218
3076	0.9223
3085	0.9227
3094	0.9229
3103	0.9231
3112	0.9232
3121	0.9233
3130	0.9233
3139	0.9234
3148	0.9233
3157	0.9232
3166	0.9231
3175	0.9231
3184	0.923
3193	0.9228
3202	0.9227
3211	0.9226
3220	0.9225
3229	0.9224
3238	0.9224
3247	0.9224
3256	0.9225
3265	0.9225
3274	0.9226
3283	0.9224
3292	0.9222
3301	0.9219
3310	0.9217
3319	0.9214
3328	0.9212
3337	0.9209
3346	0.9205
3355	0.9201
3364	0.9197
3373	0.9193
3382	0.9191
3391	0.9195
3400	0.9198
3409	0.9201
3418	0.9205
3427	0.921
3436	0.9219
3445	0.9227
3454	0.9236
3463	0.9245
3472	0.9254
3481	0.9264
3490	0.927
3499	0.9274
3508	0.9278
3517	0.9282
3526	0.9285
3535	0.9287
3544	0.9286
3553	0.9284
3562	0.9282
3571	0.928
3580	0.9277
3589	0.9275
3598	0.9272
3607	0.927
3616	0.9267
3625	0.9264
3634	0.9261
3643	0.9259
3652	0.9257
3661	0.9254
3670	0.9252
3679	0.925
3688	0.9247
3697	0.9245
3706	0.9243
3715	0.9239
3724	0.9236
3733	0.9233
3742	0.923
3751	0.9226
3760	0.9223
3769	0.9221
3778	0.9218
3787	0.9213
3796	0.9208
3805	0.9204
3814	0.9199
3823	0.9194
3832	0.919
3841	0.9186
3850	0.9182
3859	0.9178
3868	0.9173
3877	0.9169
3886	0.9165
3895	0.9158
3904	0.915
3913	0.9143
3922	0.9136
3931	0.913
3940	0.9126
3949	0.9121
3958	0.9116
3967	0.9111
3976	0.9107
3985	0.9102
3994	0.9097
