Infrared Spectrum: M-NITRO CARBANILIC ACID, n-DODECYL ESTER
Formula: C19 H30 N2 O4
CAS: 96062-94-1
State: SOLID (1.6 mg / 200 mg KBr)
Class: COBLENTZ
Instrument: Not specified, most likely a grating spectrometer.
Sampling: TRANSMISSION
Resolution: 4
Origin: CITRUS EXPERIMENT STATION, UNIVERSITY OF FLORIDA (G. EDWARDS)
MICROMETERS	TRANSMITTANCE
2.027	0.32
2.06021	0.324
2.09341	0.328
2.12662	0.335
2.15982	0.339
2.19303	0.34
2.22623	0.348
2.25944	0.349
2.29264	0.353
2.32585	0.359
2.35905	0.361
2.39226	0.367
2.42546	0.372
2.45867	0.381
2.49187	0.393
2.52508	0.395
2.55828	0.396
2.59149	0.401
2.62469	0.403
2.6579	0.404
2.6911	0.404
2.72431	0.401
2.75751	0.403
2.79072	0.404
2.82392	0.399
2.85713	0.395
2.89033	0.379
2.92354	0.279
2.95674	0.384
2.98995	0.416
3.02315	0.428
3.05636	0.435
3.08956	0.439
3.12277	0.44
3.15597	0.439
3.18918	0.44
3.22238	0.441
3.25559	0.447
3.28879	0.437
3.322	0.404
3.3552	0.301
3.38841	0.224
3.42161	0.327
3.45482	0.332
3.48802	0.377
3.52123	0.469
3.55443	0.489
3.58764	0.496
3.62084	0.51
3.65405	0.51
3.68725	0.516
3.72046	0.519
3.75366	0.519
3.78687	0.522
3.82007	0.53
3.85328	0.53
3.88648	0.535
3.91969	0.538
3.95289	0.542
3.9861	0.544
4.0193	0.548
4.05251	0.551
4.08571	0.552
4.11892	0.56
4.15212	0.564
4.18533	0.566
4.21853	0.564
4.25174	0.564
4.28494	0.566
4.31815	0.567
4.35135	0.574
4.38456	0.579
4.41776	0.58
4.45097	0.58
4.48417	0.58
4.51738	0.584
4.55058	0.586
4.58379	0.592
4.61699	0.6
4.6502	0.602
4.6834	0.603
4.71661	0.603
4.74981	0.604
4.78302	0.606
4.81622	0.611
4.84943	0.612
4.88263	0.615
4.91584	0.619
4.94904	0.623
4.98225	0.622
5.01546	0.622
5.04866	0.624
5.08187	0.63
5.11507	0.63
5.14828	0.631
5.18148	0.631
5.21469	0.636
5.24789	0.635
5.2811	0.64
5.3143	0.642
5.34751	0.642
5.38071	0.64
5.41392	0.64
5.44712	0.639
5.48033	0.638
5.51353	0.635
5.54674	0.626
5.57994	0.619
5.61315	0.599
5.64635	0.58
5.67956	0.506
5.71276	0.436
5.74597	0.343
5.77917	0.328
5.81238	0.453
5.84558	0.584
5.87879	0.623
5.91199	0.636
5.9452	0.638
5.9784	0.638
6.01161	0.624
6.04481	0.602
6.07802	0.598
6.11122	0.586
6.14443	0.586
6.17763	0.58
6.21084	0.57
6.24404	0.579
6.27725	0.59
6.31045	0.511
6.34366	0.425
6.37686	0.351
6.41007	0.384
6.44327	0.452
6.47648	0.48
6.50968	0.563
6.54289	0.639
6.57609	0.642
6.6093	0.642
6.6425	0.639
6.67571	0.622
6.70891	0.599
6.74212	0.598
6.77532	0.6
6.80853	0.618
6.84173	0.636
6.87494	0.628
6.90814	0.602
6.94135	0.603
6.97455	0.659
7.00776	0.7
7.04096	0.703
7.07417	0.707
7.10737	0.704
7.14058	0.699
7.17378	0.686
7.20699	0.672
7.24019	0.642
7.2734	0.602
7.3066	0.464
7.33981	0.324
7.37301	0.312
7.40622	0.373
7.43942	0.461
7.47263	0.527
7.50583	0.54
7.53904	0.591
7.57224	0.66
7.60545	0.682
7.63865	0.675
7.67186	0.66
7.70506	0.586
7.73827	0.5
7.77147	0.563
7.80468	0.651
7.83788	0.704
7.87109	0.702
7.90429	0.678
7.9375	0.652
7.97071	0.602
8.00391	0.488
8.03712	0.329
8.07032	0.396
8.10353	0.519
8.13673	0.6
8.16994	0.662
8.20314	0.702
8.23635	0.724
8.26955	0.743
8.30276	0.757
8.33596	0.771
8.36917	0.775
8.40237	0.775
8.43558	0.775
8.46878	0.774
8.50199	0.765
8.53519	0.757
8.5684	0.758
8.6016	0.763
8.63481	0.781
8.66801	0.783
8.70122	0.793
8.73442	0.794
8.76763	0.793
8.80083	0.794
8.83404	0.797
8.86724	0.797
8.90045	0.795
8.93365	0.787
8.96686	0.774
9.00006	0.73
9.03327	0.686
9.06647	0.676
9.09968	0.69
9.13288	0.691
9.16609	0.694
9.19929	0.704
9.2325	0.73
9.2657	0.743
9.29891	0.726
9.33211	0.69
9.36532	0.686
9.39852	0.714
9.43173	0.75
9.46493	0.761
9.49814	0.791
9.53134	0.81
9.56455	0.83
9.59775	0.833
9.63096	0.839
9.66416	0.842
9.69737	0.851
9.73057	0.854
9.76378	0.854
9.79698	0.859
9.83019	0.861
9.86339	0.862
9.8966	0.861
9.9298	0.859
9.96301	0.861
9.99621	0.863
10.0294	0.866
10.0626	0.867
10.0958	0.869
10.129	0.867
10.1622	0.867
10.1954	0.873
10.2286	0.878
10.2619	0.875
10.2951	0.875
10.3283	0.878
10.3615	0.877
10.3947	0.879
10.4279	0.878
10.4611	0.877
10.4943	0.873
10.5275	0.87
10.5607	0.861
10.5939	0.835
10.6271	0.802
10.6603	0.793
10.6935	0.822
10.7267	0.861
10.7599	0.881
10.7931	0.895
10.8263	0.899
10.8595	0.901
10.8927	0.902
10.926	0.902
10.9592	0.901
10.9924	0.902
11.0256	0.905
11.0588	0.905
11.092	0.899
11.1252	0.895
11.1584	0.889
11.1916	0.879
11.2248	0.861
11.258	0.833
11.2912	0.754
11.3244	0.734
11.3576	0.829
11.3908	0.887
11.424	0.911
11.4572	0.917
11.4904	0.922
11.5236	0.923
11.5569	0.923
11.5901	0.923
11.6233	0.926
11.6565	0.925
11.6897	0.926
11.7229	0.926
11.7561	0.927
11.7893	0.927
11.8225	0.927
11.8557	0.922
11.8889	0.921
11.9221	0.919
11.9553	0.917
11.9885	0.911
12.0217	0.879
12.0549	0.837
12.0881	0.803
12.1213	0.821
12.1545	0.889
12.1877	0.913
12.221	0.918
12.2542	0.915
12.2874	0.909
12.3206	0.906
12.3538	0.893
12.387	0.867
12.4202	0.831
12.4534	0.786
12.4866	0.781
12.5198	0.849
12.553	0.903
12.5862	0.919
12.6194	0.922
12.6526	0.925
12.6858	0.926
12.719	0.931
12.7522	0.918
12.7854	0.911
12.8186	0.906
12.8518	0.894
12.8851	0.871
12.9183	0.843
12.9515	0.807
12.9847	0.746
13.0179	0.694
13.0511	0.699
13.0843	0.699
13.1175	0.702
13.1507	0.747
13.1839	0.813
13.2171	0.878
13.2503	0.898
13.2835	0.905
13.3167	0.905
13.3499	0.902
13.3831	0.886
13.4163	0.875
13.4495	0.853
13.4827	0.818
13.5159	0.73
13.5492	0.616
13.5824	0.538
13.6156	0.598
13.6488	0.728
13.682	0.803
13.7152	0.849
13.7484	0.849
13.7816	0.846
13.8148	0.847
13.848	0.853
13.8812	0.875
13.9144	0.899
13.9476	0.91
13.9808	0.915
14.014	0.921
14.0472	0.922
14.0804	0.921
14.1136	0.919
14.1468	0.919
14.1801	0.919
14.2133	0.918
14.2465	0.918
14.2797	0.918
14.3129	0.915
14.3461	0.913
14.3793	0.91
14.4125	0.901
14.4457	0.879
14.4789	0.85
14.5121	0.835
14.5453	0.815
14.5785	0.793
14.6117	0.793
14.6449	0.802
14.6781	0.814
14.7113	0.823
14.7445	0.825
14.7777	0.822
14.8109	0.805
14.8442	0.791
14.8774	0.791
14.9106	0.795
14.9438	0.81
14.977	0.827
15.0102	0.827
