Infrared Spectrum: 2,4,6-Tri-tert-butylaniline
Formula: C 18 H 31 N
CAS: 961-38-6
State: gas
Origin: EPA-IR VAPOR PHASE LIBRARY
1/CM	ABSORBANCE
549.8	0.01733
559.445	0.01691
569.09	0.0178
578.734	0.01987
588.379	0.01927
598.024	0.02048
607.669	0.02373
617.313	0.02799
626.958	0.02511
636.603	0.02422
646.248	0.02403
655.893	0.01948
665.537	0.01759
675.182	0.01721
684.827	0.01713
694.472	0.01606
704.116	0.01623
713.761	0.0158
723.406	0.01199
733.051	0.01047
742.695	0.01114
752.34	0.01394
761.985	0.01895
771.63	0.01745
781.275	0.01406
790.919	0.01343
800.564	0.01296
810.209	0.01056
819.854	0.0102
829.498	0.00702
839.143	0.00622
848.788	0.00683
858.433	0.00817
868.078	0.01695
877.722	0.0318
887.367	0.014
897.012	0.00888
906.657	0.01047
916.301	0.01462
925.946	0.01373
935.591	0.01016
945.236	0.00729
954.88	0.00671
964.525	0.00624
974.17	0.00615
983.815	0.00615
993.46	0.00641
1003.1	0.00805
1012.75	0.01086
1022.39	0.01188
1032.04	0.00755
1041.68	0.006
1051.33	0.00603
1060.97	0.00696
1070.62	0.00946
1080.26	0.01409
1089.91	0.01851
1099.55	0.01456
1109.2	0.01
1118.84	0.01173
1128.49	0.00838
1138.13	0.00653
1147.78	0.00654
1157.42	0.00679
1167.07	0.00928
1176.71	0.01324
1186.36	0.02128
1196	0.02298
1205.64	0.02049
1215.29	0.03236
1224.93	0.07922
1234.58	0.12765
1244.22	0.06926
1253.87	0.03672
1263.51	0.03906
1273.16	0.03116
1282.8	0.03046
1292.45	0.02857
1302.09	0.02027
1311.74	0.01058
1321.38	0.00748
1331.03	0.0082
1340.67	0.01083
1350.32	0.01919
1359.96	0.04284
1369.61	0.07398
1379.25	0.04312
1388.9	0.04244
1398.54	0.06642
1408.18	0.03985
1417.83	0.0458
1427.47	0.07507
1437.12	0.11965
1446.76	0.10005
1456.41	0.06906
1466.05	0.06546
1475.7	0.07356
1485.34	0.05638
1494.99	0.0239
1504.63	0.01287
1514.28	0.00903
1523.92	0.00711
1533.57	0.00635
1543.21	0.00556
1552.86	0.00565
1562.5	0.00682
1572.15	0.00872
1581.79	0.01003
1591.44	0.01536
1601.08	0.01943
1610.73	0.01693
1620.37	0.02377
1630.01	0.02449
1639.66	0.0163
1649.3	0.01036
1658.95	0.00758
1668.59	0.00579
1678.24	0.00456
1687.88	0.00376
1697.53	0.00337
1707.17	0.00326
1716.82	0.00303
1726.46	0.00288
1736.11	0.00312
1745.75	0.00439
1755.4	0.00659
1765.04	0.00657
1774.69	0.00443
1784.33	0.00308
1793.98	0.00264
1803.62	0.00243
1813.27	0.00233
1822.91	0.00217
1832.55	0.00194
1842.2	0.00183
1851.84	0.0018
1861.49	0.00162
1871.13	0.00165
1880.78	0.00147
1890.42	0.00164
1900.07	0.00157
1909.71	0.00158
1919.36	0.00167
1929	0.0017
1938.65	0.00158
1948.29	0.00155
1957.94	0.00142
1967.58	0.00139
1977.23	0.00116
1986.87	0.0011
1996.52	0.00116
2006.16	0.0012
2015.81	0.0012
2025.45	0.0009787
2035.1	0.0011
2044.74	0.00101
2054.38	0.0008106
2064.03	0.0009685
2073.67	0.0009307
2083.32	0.0008922
2092.96	0.0008681
2102.61	0.0008837
2112.25	0.0009331
2121.9	0.000835
2131.54	0.0008088
2141.19	0.0008694
2150.83	0.0007962
2160.48	0.0009757
2170.12	0.00104
2179.77	0.00107
2189.41	0.00105
2199.06	0.00101
2208.7	0.0007896
2218.35	0.0008259
2227.99	0.0007123
2237.64	0.0008403
2247.28	0.0007883
2256.92	0.0008213
2266.57	0.0009911
2276.21	0.0009551
2285.86	0.001
2295.5	0.00104
2305.15	0.0008946
2314.79	0.0007927
2324.44	0.0008083
2334.08	0.0006327
2343.73	0.0009557
2353.37	0.0009354
2363.02	0.00119
2372.66	0.00148
2382.31	0.0018
2391.95	0.00158
2401.6	0.00133
2411.24	0.00122
2420.89	0.0009884
2430.53	0.0008637
2440.18	0.0009992
2449.82	0.0006646
2459.47	0.0008986
2469.11	0.0008852
2478.75	0.0009656
2488.4	0.00111
2498.04	0.0011
2507.69	0.00111
2517.33	0.0014
2526.98	0.00155
2536.62	0.0017
2546.27	0.00197
2555.91	0.00214
2565.56	0.00228
2575.2	0.00191
2584.85	0.00159
2594.49	0.00177
2604.14	0.00158
2613.78	0.00151
2623.43	0.00145
2633.07	0.00158
2642.72	0.00213
2652.36	0.00242
2662.01	0.00272
2671.65	0.00265
2681.29	0.00261
2690.94	0.00307
2700.58	0.0036
2710.23	0.00425
2719.87	0.00526
2729.52	0.00584
2739.16	0.00501
2748.81	0.00521
2758.45	0.0054
2768.1	0.00521
2777.74	0.00588
2787.39	0.00768
2797.03	0.00835
2806.68	0.00911
2816.32	0.01118
2825.97	0.01314
2835.61	0.0165
2845.26	0.02247
2854.9	0.03588
2864.55	0.06599
2874.19	0.11393
2883.84	0.13951
2893.48	0.12704
2903.12	0.13229
2912.77	0.15645
2922.41	0.1625
2932.06	0.16764
2941.7	0.18981
2951.35	0.27952
2960.99	0.43374
2970.64	0.43259
2980.28	0.23915
2989.93	0.11294
2999.57	0.05699
3009.22	0.03384
3018.86	0.02317
3028.51	0.01786
3038.15	0.01504
3047.8	0.01261
3057.44	0.01168
3067.09	0.01083
3076.73	0.01087
3086.38	0.01207
3096.02	0.0137
3105.67	0.0139
3115.31	0.01193
3124.95	0.00853
3134.6	0.00662
3144.24	0.00583
3153.89	0.00522
3163.53	0.00496
3173.18	0.00501
3182.82	0.00516
3192.47	0.00519
3202.11	0.00462
3211.76	0.00437
3221.4	0.00406
3231.05	0.00348
3240.69	0.00356
3250.34	0.00353
3259.98	0.00318
3269.63	0.00314
3279.27	0.00321
3288.92	0.00292
3298.56	0.00243
3308.21	0.00252
3317.85	0.00244
3327.49	0.00239
3337.14	0.00237
3346.78	0.00203
3356.43	0.00196
3366.07	0.00177
3375.72	0.00175
3385.36	0.00181
3395.01	0.00193
3404.65	0.00201
3414.3	0.00224
3423.94	0.00339
3433.59	0.00575
3443.23	0.00877
3452.88	0.00908
3462.52	0.00588
3472.17	0.00475
3481.81	0.00485
3491.46	0.00594
3501.1	0.0101
3510.75	0.01895
3520.39	0.03011
3530.04	0.0298
3539.68	0.01766
3549.32	0.01098
3558.97	0.00768
3568.61	0.00593
3578.26	0.00454
3587.9	0.00378
3597.55	0.00301
3607.19	0.0025
3616.84	0.00243
3626.48	0.00186
3636.13	0.00152
3645.77	0.00131
3655.42	0.00165
3665.06	0.00145
3674.71	0.00144
3684.35	0.00154
3694	0.00166
3703.64	0.00122
3713.29	0.00164
3722.93	0.00102
3732.58	0.00124
3742.22	0.00131
3751.86	0.00133
3761.51	0.0013
3771.15	0.00122
3780.8	0.00165
3790.44	0.00189
3800.09	0.00213
3809.73	0.00206
3819.38	0.00215
3829.02	0.00157
3838.67	0.00174
3848.31	0.00194
3857.96	0.00188
3867.6	0.00198
3877.25	0.00171
3886.89	0.00198
3896.54	0.00218
3906.18	0.00194
3915.83	0.00171
3925.47	0.00193
3935.12	0.0015
3944.76	0.00148
3954.41	0.00179
3964.05	0.00152
3973.69	0.00189
3983.34	0.00185
3992.98	0.00158
