Infrared Spectrum: N,N'-[2,2'-DITHIOBIS(ETHYLOCTANAMIDE)]
Formula: C20 H40 N2 O2 S2
CAS: 96123-64-7
State: SOLID (MINERAL OIL MULL)
Melting point: 116-117 C
Class: COBLENTZ
Instrument: Not specified, most likely a prism, grating, or hybrid spectrometer.
Sampling: TRANSMISSION
Resolution: 4
Origin: ARTHUR D. LITTLE, INC.
MICROMETERS	TRANSMITTANCE
2.104	0.746
2.14083	0.746
2.17766	0.758
2.21449	0.75
2.25132	0.75
2.28815	0.755
2.32499	0.75
2.36182	0.743
2.39865	0.74
2.43548	0.743
2.47231	0.744
2.50914	0.747
2.54597	0.749
2.5828	0.753
2.61963	0.763
2.65646	0.769
2.6933	0.773
2.73013	0.776
2.76696	0.78
2.80379	0.787
2.84062	0.803
2.87745	0.804
2.91428	0.813
2.95111	0.821
2.98794	0.818
3.02477	0.715
3.0616	0.336
3.09844	0.329
3.13527	0.507
3.1721	0.573
3.20893	0.629
3.24576	0.672
3.28259	0.673
3.31942	0.629
3.35625	0.626
3.39308	0.527
3.42991	0.246
3.46674	0.155
3.50358	0.141
3.54041	0.133
3.57724	0.384
3.61407	0.583
3.6509	0.652
3.68773	0.692
3.72456	0.721
3.76139	0.741
3.79822	0.752
3.83505	0.763
3.87189	0.773
3.90872	0.796
3.94555	0.809
3.98238	0.82
4.01921	0.832
4.05604	0.832
4.09287	0.838
4.1297	0.852
4.16653	0.861
4.20336	0.86
4.24019	0.853
4.27703	0.852
4.31386	0.852
4.35069	0.853
4.38752	0.855
4.42435	0.88
4.46118	0.889
4.49801	0.895
4.53484	0.909
4.57167	0.91
4.6085	0.907
4.64534	0.909
4.68217	0.913
4.719	0.915
4.75583	0.918
4.79266	0.923
4.82949	0.93
4.86632	0.932
4.90315	0.933
4.93998	0.935
4.97681	0.932
5.01364	0.932
5.05048	0.938
5.08731	0.932
5.12414	0.932
5.16097	0.94
5.1978	0.95
5.23463	0.953
5.27146	0.952
5.30829	0.955
5.34512	0.956
5.38195	0.96
5.41878	0.961
5.45562	0.963
5.49245	0.963
5.52928	0.963
5.56611	0.963
5.60294	0.961
5.63977	0.961
5.6766	0.958
5.71343	0.95
5.75026	0.935
5.78709	0.923
5.82393	0.93
5.86076	0.907
5.89759	0.898
5.93442	0.873
5.97125	0.841
6.00808	0.681
6.04491	0.498
6.08174	0.24
6.11857	0.124
6.1554	0.178
6.19223	0.341
6.22907	0.52
6.2659	0.633
6.30273	0.687
6.33956	0.69
6.37639	0.633
6.41322	0.476
6.45005	0.223
6.48688	0.19
6.52371	0.33
6.56054	0.476
6.59737	0.598
6.63421	0.65
6.67104	0.706
6.70787	0.718
6.7447	0.641
6.78153	0.35
6.81836	0.25
6.85519	0.315
6.89202	0.387
6.92885	0.455
6.96568	0.489
7.00252	0.398
7.03935	0.272
7.07618	0.415
7.11301	0.55
7.14984	0.583
7.18667	0.56
7.2235	0.5
7.26033	0.453
7.29716	0.476
7.33399	0.529
7.37082	0.56
7.40766	0.589
7.44449	0.606
7.48132	0.613
7.51815	0.595
7.55498	0.607
7.59181	0.616
7.62864	0.661
7.66547	0.686
7.7023	0.692
7.73913	0.661
7.77597	0.581
7.8128	0.578
7.84963	0.572
7.88646	0.669
7.92329	0.718
7.96012	0.74
7.99695	0.686
8.03378	0.53
8.07061	0.555
8.10744	0.593
8.14427	0.638
8.18111	0.727
8.21794	0.79
8.25477	0.735
8.2916	0.624
8.32843	0.55
8.36526	0.641
8.40209	0.713
8.43892	0.763
8.47575	0.801
8.51258	0.813
8.54941	0.807
8.58625	0.816
8.62308	0.841
8.65991	0.849
8.69674	0.856
8.73357	0.861
8.7704	0.85
8.80723	0.793
8.84406	0.756
8.88089	0.707
8.91772	0.727
8.95456	0.801
8.99139	0.827
9.02822	0.864
9.06505	0.878
9.10188	0.887
9.13871	0.889
9.17554	0.883
9.21237	0.878
9.2492	0.881
9.28603	0.88
9.32286	0.873
9.3597	0.813
9.39653	0.796
9.43336	0.843
9.47019	0.852
9.50702	0.873
9.54385	0.893
9.58068	0.898
9.61751	0.9
9.65434	0.887
9.69117	0.873
9.72801	0.838
9.76484	0.85
9.80167	0.873
9.8385	0.893
9.87533	0.901
9.91216	0.91
9.94899	0.93
9.98582	0.976
10.0227	0.967
10.0595	0.946
10.0963	0.943
10.1331	0.946
10.17	0.952
10.2068	0.946
10.2436	0.946
10.2805	0.949
10.3173	0.949
10.3541	0.944
10.391	0.943
10.4278	0.929
10.4646	0.903
10.5015	0.893
10.5383	0.836
10.5751	0.78
10.6119	0.813
10.6488	0.86
10.6856	0.9
10.7224	0.924
10.7593	0.936
10.7961	0.949
10.8329	0.956
10.8698	0.961
10.9066	0.955
10.9434	0.94
10.9803	0.936
11.0171	0.949
11.0539	0.946
11.0907	0.944
11.1276	0.941
11.1644	0.949
11.2012	0.946
11.2381	0.941
11.2749	0.953
11.3117	0.967
11.3486	0.972
11.3854	0.978
11.4222	0.98
11.4591	0.987
11.4959	0.99
11.5327	0.996
11.5696	0.992
11.6064	0.99
11.6432	0.992
11.68	0.992
11.7169	0.989
11.7537	0.987
11.7905	0.99
11.8274	0.984
11.8642	0.983
11.901	0.993
11.9379	0.993
11.9747	0.987
12.0115	0.986
12.0484	0.986
12.0852	0.992
12.122	0.99
12.1588	0.987
12.1957	0.989
12.2325	0.989
12.2693	0.989
12.3062	0.987
12.343	0.989
12.3798	0.987
12.4167	0.99
12.4535	0.986
12.4903	0.989
12.5272	0.987
12.564	0.984
12.6008	0.983
12.6376	0.983
12.6745	0.983
12.7113	0.975
12.7481	0.973
12.785	0.975
12.8218	0.969
12.8586	0.958
12.8955	0.95
12.9323	0.941
12.9691	0.927
13.006	0.887
13.0428	0.844
13.0796	0.806
13.1165	0.801
13.1533	0.835
13.1901	0.852
13.2269	0.867
13.2638	0.88
13.3006	0.895
13.3374	0.895
13.3743	0.892
13.4111	0.886
13.4479	0.873
13.4848	0.856
13.5216	0.836
13.5584	0.812
13.5953	0.784
13.6321	0.767
13.6689	0.763
13.7057	0.767
13.7426	0.77
13.7794	0.767
13.8162	0.736
13.8531	0.681
13.8899	0.632
13.9267	0.652
13.9636	0.695
14.0004	0.713
14.0372	0.729
14.0741	0.732
14.1109	0.721
14.1477	0.712
14.1845	0.701
14.2214	0.686
14.2582	0.67
14.295	0.663
14.3319	0.661
14.3687	0.661
14.4055	0.66
14.4424	0.658
14.4792	0.656
14.516	0.647
14.5529	0.632
14.5897	0.618
14.6265	0.607
14.6634	0.604
14.7002	0.592
14.737	0.581
14.7738	0.584
14.8107	0.584
14.8475	0.584
14.8843	0.592
14.9212	0.603
14.958	0.609
14.9948	0.612
15.0317	0.62
15.0685	0.64
15.1053	0.653
15.1422	0.663
15.179	0.672
