Infrared Spectrum: 5Beta-Androstan-16Beta-ylacetic acid lactone, 3Beta,17Beta-dihydroxy-
Formula: C21 H32 O3
CAS: 96191-75-2
State: SOLUTION 7% (CHCl3 FOR 2.5-12.5 microns)
Melting point: 196-197 C
Class: COBLENTZ
Instrument: PERKIN-ELMER 21 (GRATING)
Instrument parameters: FILTER AT ABOUT 10 MICRONS
Path length: 0.01 CM
Resolution: 2
Origin: ABBOTT LABORATORIES
1/CM	TRANSMITTANCE
801	0.9811
809	0.9259
817	0.829
825	0.7398
833	0.8162
841	0.8556
849	0.8033
857	0.8111
865	0.8405
873	0.7385
881	0.7616
889	0.8625
897	0.8437
905	0.7628
913	0.8264
921	0.8563
929	0.8484
937	0.7661
945	0.7669
953	0.788
961	0.6299
969	0.8286
977	0.8157
985	0.696
993	0.7444
1001	0.6948
1009	0.4291
1017	0.3385
1025	0.2226
1033	0.2813
1041	0.6184
1049	0.4579
1057	0.5751
1065	0.694
1073	0.779
1081	0.811
1089	0.8108
1097	0.8016
1105	0.7784
1113	0.7516
1121	0.7252
1129	0.6632
1137	0.5824
1145	0.6166
1153	0.4954
1161	0.3426
1169	0.2046
1177	0.2598
1185	0.4538
1193	0.6434
1201	0.6627
1209	0.5936
1217	0.5559
1225	0.5375
1233	0.5372
1241	0.5991
1249	0.6869
1257	0.7269
1265	0.7329
1273	0.745
1281	0.7534
1289	0.7587
1297	0.6978
1305	0.6669
1313	0.7705
1321	0.7476
1329	0.6449
1337	0.7274
1345	0.7242
1353	0.6568
1361	0.6863
1369	0.7011
1377	0.626
1385	0.608
1393	0.7204
1401	0.8035
1409	0.7987
1417	0.7608
1425	0.7935
1433	0.7259
1441	0.6238
1449	0.4852
1457	0.6978
1465	0.6964
1473	0.8208
1481	0.8783
1489	0.8941
1497	0.9144
1505	0.9275
1513	0.9321
1521	0.9328
1529	0.9291
1537	0.9252
1545	0.9213
1553	0.9153
1561	0.911
1569	0.9078
1577	0.9035
1585	0.8995
1593	0.8929
1601	0.8876
1609	0.89
1617	0.892
1625	0.8935
1633	0.8935
1641	0.8903
1649	0.8893
1657	0.8887
1665	0.8864
1673	0.8757
1681	0.8678
1689	0.8532
1697	0.8022
1705	0.7693
1713	0.7661
1721	0.7487
1729	0.7186
1737	0.6391
1745	0.5088
1753	0.237
1761	0.061
1769	0.0639
1777	0.1201
1785	0.2916
1793	0.6361
1801	0.7507
1809	0.8324
1817	0.8722
1825	0.8842
1833	0.892
1841	0.8948
1849	0.8991
1857	0.9085
1865	0.911
1873	0.9121
1881	0.9136
1889	0.9161
1897	0.9205
1905	0.9233
1913	0.9274
1921	0.9296
1929	0.9305
1937	0.9306
1945	0.9307
1953	0.9307
1961	0.9308
1969	0.9307
1977	0.9306
1985	0.9308
1993	0.9311
2001	0.9313
2009	0.9319
2017	0.9327
2025	0.9334
2033	0.9347
2041	0.9361
2049	0.9382
2057	0.9391
2065	0.9386
2073	0.9375
2081	0.9367
2089	0.9362
2097	0.9364
2105	0.9368
2113	0.9372
2121	0.9375
2129	0.9378
2137	0.9382
2145	0.9385
2153	0.9387
2161	0.9391
2169	0.9393
2177	0.9395
2185	0.9397
2193	0.9396
2201	0.9396
2209	0.9396
2217	0.9396
2225	0.9399
2233	0.9403
2241	0.9407
2249	0.941
2257	0.9414
2265	0.9418
2273	0.9422
2281	0.9425
2289	0.943
2297	0.944
2305	0.9457
2313	0.9473
2321	0.9492
2329	0.952
2337	0.9548
2345	0.9586
2353	0.9627
2361	0.9654
2369	0.9666
2377	0.9671
2385	0.9667
2393	0.9644
2401	0.9562
2409	0.9395
2417	0.9279
2425	0.9211
2433	0.9215
2441	0.922
2449	0.9229
2457	0.9239
2465	0.925
2473	0.9261
2481	0.9266
2489	0.9273
2497	0.9277
2505	0.9281
2513	0.9286
2521	0.9291
2529	0.9291
2537	0.9292
2545	0.9292
2553	0.9283
2561	0.9274
2569	0.9263
2577	0.9247
2585	0.9229
2593	0.9196
2601	0.916
2609	0.9137
2617	0.9118
2625	0.9101
2633	0.9084
2641	0.9069
2649	0.9061
2657	0.9052
2665	0.9046
2673	0.9042
2681	0.9038
2689	0.9034
2697	0.903
2705	0.9027
2713	0.9023
2721	0.902
2729	0.9017
2737	0.901
2745	0.9003
2753	0.8997
2761	0.8979
2769	0.8957
2777	0.8894
2785	0.881
2793	0.8685
2801	0.8549
2809	0.8413
2817	0.824
2825	0.7994
2833	0.748
2841	0.6318
2849	0.5172
2857	0.4142
2865	0.3902
2873	0.3848
2881	0.3781
2889	0.3615
2897	0.3467
2905	0.3201
2913	0.2802
2921	0.2405
2929	0.2117
2937	0.2129
2945	0.2648
2953	0.3238
2961	0.3824
2969	0.4407
2977	0.4987
2985	0.5564
2993	0.6137
3001	0.6708
3009	0.7275
3017	0.784
3025	0.8307
3033	0.852
3041	0.866
3049	0.8828
3057	0.8991
3065	0.9096
3073	0.9164
3081	0.9207
3089	0.9239
3097	0.9259
3105	0.9264
3113	0.9267
3121	0.9269
3129	0.9273
3137	0.9274
3145	0.9275
3153	0.9277
3161	0.9278
3169	0.9278
3177	0.9278
3185	0.9289
3193	0.9279
3201	0.9278
3209	0.9278
3217	0.9278
3225	0.9277
3233	0.9277
3241	0.9275
3249	0.9273
3257	0.9271
3265	0.9268
3273	0.9266
3281	0.9264
3289	0.9263
3297	0.9261
3305	0.9254
3313	0.9241
3321	0.9226
3329	0.9201
3337	0.9173
3345	0.9141
3353	0.9109
3361	0.9072
3369	0.9035
3377	0.8998
3385	0.8958
3393	0.8915
3401	0.8867
3409	0.88
3417	0.8745
3425	0.8705
3433	0.8665
3441	0.8627
3449	0.8593
3457	0.857
3465	0.8551
3473	0.8543
3481	0.854
3489	0.8544
3497	0.856
3505	0.8596
3513	0.864
3521	0.8684
3529	0.8719
3537	0.8737
3545	0.8747
3553	0.8749
3561	0.8746
3569	0.8667
3577	0.8515
3585	0.8362
3593	0.8212
3601	0.8061
3609	0.7915
3617	0.7854
3625	0.8018
3633	0.8384
3641	0.8748
3649	0.9045
3657	0.9103
3665	0.9134
3673	0.916
3681	0.9199
3689	0.9283
3697	0.9321
3705	0.933
3713	0.9332
3721	0.9333
3729	0.9333
3737	0.9332
3745	0.933
3753	0.9328
3761	0.9326
3769	0.9325
3777	0.9323
3785	0.9322
3793	0.932
3801	0.9318
3809	0.9317
3817	0.9314
3825	0.9313
3833	0.9312
3841	0.9309
3849	0.9309
3857	0.9308
3865	0.9306
3873	0.9305
3881	0.9304
3889	0.9302
3897	0.93
3905	0.9298
3913	0.9295
3921	0.9293
3929	0.9291
3937	0.929
3945	0.9288
3953	0.9286
3961	0.9285
3969	0.9283
3977	0.9281
3985	0.928
3993	0.9279
