Infrared Spectrum: Triazolo[4,5-d]Pyrimidine, 3H-v-,5-amino-7-benzylthio-3-ethyl-
Formula: C13 H14 N6 S
CAS: 96229-34-4
State: SOLID (0.6 mg / 650 mg KBr DISC)
Class: COBLENTZ III
Instrument: PERKIN-ELMER 21 (GRATING)
Instrument parameters: FILTER CHANGE ABOUT 1090 CM^-^1
Sampling: TRANSMISSION
Resolution: 2
Origin: SOUTHERN RESEARCH INSTITUTE
1/CM	TRANSMITTANCE
606.812	0.9496
615.826	0.9476
624.84	0.9366
633.853	0.9063
642.867	0.8777
651.881	0.8657
660.895	0.8352
669.908	0.751
678.922	0.691
687.936	0.7564
696.95	0.719
705.963	0.3239
714.977	0.5944
723.991	0.7929
733.005	0.682
742.018	0.772
751.032	0.7532
760.046	0.7231
769.06	0.6617
778.073	0.4088
787.087	0.6409
796.101	0.5467
805.115	0.6906
814.128	0.6907
823.142	0.7071
832.156	0.6975
841.17	0.6258
850.183	0.5852
859.197	0.6566
868.211	0.7209
877.225	0.7341
886.238	0.7423
895.252	0.7403
904.266	0.7296
913.28	0.7012
922.294	0.6475
931.307	0.4446
940.321	0.5493
949.335	0.7463
958.349	0.7272
967.362	0.7214
976.376	0.7218
985.39	0.7135
994.404	0.6892
1003.42	0.5622
1012.43	0.3671
1021.44	0.5477
1030.46	0.531
1039.47	0.778
1048.49	0.7739
1057.5	0.7574
1066.51	0.7299
1075.53	0.6136
1084.54	0.6968
1093.55	0.6797
1102.57	0.6861
1111.58	0.684
1120.6	0.6693
1129.61	0.6498
1138.62	0.6257
1147.64	0.5936
1156.65	0.5253
1165.66	0.2697
1174.68	0.3597
1183.69	0.5988
1192.71	0.7439
1201.72	0.7028
1210.73	0.7298
1219.75	0.6759
1228.76	0.5723
1237.78	0.4338
1246.79	0.5656
1255.8	0.6764
1264.82	0.7188
1273.83	0.7465
1282.84	0.7215
1291.86	0.7105
1300.87	0.7089
1309.89	0.6886
1318.9	0.6395
1327.91	0.4367
1336.93	0.6245
1345.94	0.6731
1354.95	0.6268
1363.97	0.6447
1372.98	0.6186
1382	0.4287
1391.01	0.5595
1400.02	0.5463
1409.04	0.4551
1418.05	0.3825
1427.06	0.3621
1436.08	0.5413
1445.09	0.4468
1454.11	0.426
1463.12	0.5662
1472.13	0.6136
1481.15	0.5401
1490.16	0.3389
1499.17	0.2619
1508.19	0.6005
1517.2	0.6043
1526.22	0.5403
1535.23	0.4778
1544.24	0.2702
1553.26	0.1711
1562.27	0.3691
1571.28	0.2603
1580.3	0.1003
1589.31	0.0565
1598.33	0.1268
1607.34	0.2419
1616.35	0.4469
1625.37	0.5517
1634.38	0.616
1643.39	0.7046
1652.41	0.7646
1661.42	0.7967
1670.44	0.822
1679.45	0.8271
1688.46	0.8166
1697.48	0.8174
1706.49	0.8221
1715.5	0.8282
1724.52	0.8311
1733.53	0.8322
1742.55	0.8325
1751.56	0.8318
1760.57	0.831
1769.59	0.8313
1778.6	0.8298
1787.61	0.8278
1796.63	0.8259
1805.64	0.8247
1814.66	0.8115
1823.67	0.82
1832.68	0.8182
1841.7	0.8165
1850.71	0.8148
1859.72	0.8134
1868.74	0.8127
1877.75	0.8109
1886.77	0.8027
1895.78	0.7976
1904.79	0.798
1913.81	0.7973
1922.82	0.7958
1931.83	0.7943
1940.85	0.7927
1949.86	0.7885
1958.88	0.7823
1967.89	0.7763
1976.9	0.7759
1985.92	0.7813
1994.93	0.7845
2003.94	0.7807
2012.96	0.7744
2021.97	0.7729
2030.99	0.7757
2040	0.7786
2049.01	0.7801
2058.03	0.7801
2067.04	0.7785
2076.05	0.7758
2085.07	0.7714
2094.08	0.768
2103.1	0.7667
2112.11	0.7658
2121.12	0.7651
2130.14	0.764
2139.15	0.7626
2148.16	0.7611
2157.18	0.7595
2166.19	0.7576
2175.21	0.7562
2184.22	0.7556
2193.23	0.7575
2202.25	0.7577
2211.26	0.7565
2220.27	0.752
2229.29	0.7442
2238.3	0.7423
2247.32	0.7437
2256.33	0.7471
2265.34	0.7495
2274.36	0.7495
2283.37	0.7455
2292.38	0.7418
2301.4	0.738
2310.41	0.7307
2319.43	0.7316
2328.44	0.7356
2337.45	0.7372
2346.47	0.7295
2355.48	0.7275
2364.49	0.7269
2373.51	0.7265
2382.52	0.725
2391.54	0.7232
2400.55	0.7216
2409.56	0.7202
2418.58	0.7188
2427.59	0.7177
2436.6	0.7164
2445.62	0.715
2454.63	0.7131
2463.65	0.7106
2472.66	0.7061
2481.67	0.7062
2490.69	0.7077
2499.7	0.7097
2508.71	0.7111
2517.73	0.7112
2526.74	0.7111
2535.76	0.7083
2544.77	0.7036
2553.78	0.6991
2562.8	0.6955
2571.81	0.696
2580.82	0.6975
2589.84	0.6967
2598.85	0.6952
2607.87	0.6902
2616.88	0.6878
2625.89	0.6871
2634.91	0.6866
2643.92	0.6859
2652.93	0.6839
2661.95	0.682
2670.96	0.6792
2679.98	0.6763
2688.99	0.6736
2698	0.6714
2707.02	0.6692
2716.03	0.6697
2725.04	0.6703
2734.06	0.6715
2743.07	0.6701
2752.09	0.6659
2761.1	0.6633
2770.11	0.6612
2779.13	0.6596
2788.14	0.658
2797.16	0.6553
2806.17	0.6466
2815.18	0.6422
2824.2	0.6418
2833.21	0.6349
2842.22	0.626
2851.24	0.6219
2860.25	0.6183
2869.27	0.6148
2878.28	0.6115
2887.29	0.6092
2896.31	0.6042
2905.32	0.5832
2914.33	0.5759
2923.35	0.5878
2932.36	0.5907
2941.38	0.5884
2950.39	0.579
2959.4	0.5699
2968.42	0.5799
2977.43	0.6011
2986.44	0.6137
2995.46	0.6194
3004.47	0.6145
3013.49	0.6181
3022.5	0.6166
3031.51	0.615
3040.53	0.6151
3049.54	0.6138
3058.55	0.6141
3067.57	0.6139
3076.58	0.6131
3085.6	0.6121
3094.61	0.6105
3103.62	0.6071
3112.64	0.6016
3121.65	0.5951
3130.66	0.5895
3139.68	0.5855
3148.69	0.5848
3157.71	0.5843
3166.72	0.5831
3175.73	0.5818
3184.75	0.581
3193.76	0.5799
3202.77	0.5783
3211.79	0.5742
3220.8	0.5688
3229.82	0.5617
3238.83	0.5528
3247.84	0.5475
3256.86	0.5452
3265.87	0.5335
3274.88	0.5239
3283.9	0.5151
3292.91	0.509
3301.93	0.5029
3310.94	0.4962
3319.95	0.4875
3328.97	0.4758
3337.98	0.4626
3346.99	0.4434
3356.01	0.4121
3365.02	0.372
3374.04	0.3086
3383.05	0.2659
3392.06	0.3939
3401.08	0.5148
3410.09	0.5123
3419.1	0.5052
3428.12	0.4967
3437.13	0.4879
3446.15	0.4743
3455.16	0.4517
3464.17	0.4187
3473.19	0.391
3482.2	0.4325
3491.21	0.5165
3500.23	0.5617
3509.24	0.5686
3518.26	0.5717
3527.27	0.5747
3536.28	0.5772
3545.3	0.5791
3554.31	0.582
3563.32	0.5858
3572.34	0.589
3581.35	0.5917
3590.37	0.598
3599.38	0.6044
3608.39	0.606
3617.41	0.6062
3626.42	0.6061
3635.43	0.6053
3644.45	0.6042
3653.46	0.6029
3662.48	0.6016
3671.49	0.6011
3680.5	0.6056
3689.52	0.6026
3698.53	0.6012
3707.54	0.6024
3716.56	0.6089
3725.57	0.6118
3734.59	0.6074
3743.6	0.6035
3752.61	0.6009
3761.63	0.5983
3770.64	0.596
3779.65	0.5948
3788.67	0.5941
3797.68	0.5935
3806.7	0.5956
3815.71	0.5994
3824.72	0.6001
3833.74	0.599
3842.75	0.5931
3851.76	0.5916
3860.78	0.5916
3869.79	0.5911
3878.81	0.5889
3887.82	0.5864
3896.83	0.5841
3905.85	0.5834
3914.86	0.5832
3923.87	0.5834
3932.89	0.5839
3941.9	0.5835
3950.92	0.5821
3959.93	0.5814
3968.94	0.5811
3977.96	0.5784
3986.97	0.5694
3995.98	0.5651
4005	0.5641
