Infrared Spectrum: trans-2-Methyl-4-hexen-3-ol
Formula: C 7 H 14 O
CAS: 96346-76-8
State: gas
Instrument: HP-GC/MS/IRD
Origin: NIST Mass Spectrometry Data Center
1/CM	ABSORBANCE
550	0.000204
562	0.000144
574	9.6e-05
586	0.000174
598	0.000171
610	0.000204
622	0.00015
634	0.00012
646	5.7e-05
658	0.00024
670	0.000207
682	0.000282
694	0.000237
706	0.000162
718	0.000129
730	8.1e-05
742	0.000189
754	0.000327
766	0.00045
778	0.000456
790	0.000579
802	0.000531
814	0.000585
826	0.000765
838	0.000798
850	0.000825
862	0.000891
874	0.001098
886	0.001197
898	0.001512
910	0.002523
922	0.004311
934	0.005589
946	0.006867
958	0.010815
970	0.012738
982	0.010992
994	0.010866
1006	0.012489
1018	0.012267
1030	0.008766
1042	0.00588
1054	0.004737
1066	0.004092
1078	0.003597
1090	0.003177
1102	0.002961
1114	0.002964
1126	0.003132
1138	0.003171
1150	0.003201
1162	0.003381
1174	0.003099
1186	0.002583
1198	0.002541
1210	0.003114
1222	0.00387
1234	0.004386
1246	0.004353
1258	0.003882
1270	0.003375
1282	0.003162
1294	0.003219
1306	0.003177
1318	0.002763
1330	0.00258
1342	0.002865
1354	0.003822
1366	0.00543
1378	0.006708
1390	0.006321
1402	0.004098
1414	0.002457
1426	0.00231
1438	0.003135
1450	0.004344
1462	0.005208
1474	0.004617
1486	0.002841
1498	0.001467
1510	0.00105
1522	0.000813
1534	0.000621
1546	0.000507
1558	0.000408
1570	0.000342
1582	0.000345
1594	0.000375
1606	0.000378
1618	0.000375
1630	0.000441
1642	0.000624
1654	0.001056
1666	0.001563
1678	0.001209
1690	0.000483
1702	0.000264
1714	0.000258
1726	0.00027
1738	0.000303
1750	0.000306
1762	0.000222
1774	0.000162
1786	0.000207
1798	0.000192
1810	0.000174
1822	0.000129
1834	0.000108
1846	9.9e-05
1858	7.5e-05
1870	7.5e-05
1882	2.1e-05
1894	3e-05
1906	9e-06
1918	1.5e-05
1930	1.8e-05
1942	2.7e-05
1954	1.8e-05
1966	3e-05
1978	5.1e-05
1990	8.1e-05
2002	0.000126
2014	0.000114
2026	6.6e-05
2038	3.6e-05
2050	2.4e-05
2062	2.7e-05
2074	1.8e-05
2086	2.1e-05
2098	3e-06
2110	6e-06
2122	1.5e-05
2134	2.1e-05
2146	2.7e-05
2158	1.8e-05
2170	1.8e-05
2182	4.8e-05
2194	5.7e-05
2206	4.5e-05
2218	6e-05
2230	6.6e-05
2242	7.5e-05
2254	6e-05
2266	6.3e-05
2278	6.6e-05
2290	0.000108
2302	9.3e-05
2314	0.000108
2326	8.1e-05
2338	6.3e-05
2350	9.9e-05
2362	9.6e-05
2374	0.000165
2386	0.000168
2398	0.000168
2410	0.000183
2422	0.000177
2434	0.000177
2446	0.000171
2458	0.00018
2470	0.000159
2482	0.000171
2494	0.000156
2506	0.000129
2518	0.000123
2530	0.000132
2542	0.000162
2554	0.00021
2566	0.000264
2578	0.000306
2590	0.000345
2602	0.000336
2614	0.000327
2626	0.000327
2638	0.000321
2650	0.000348
2662	0.000402
2674	0.000417
2686	0.00042
2698	0.000456
2710	0.000528
2722	0.000708
2734	0.000963
2746	0.001065
2758	0.000891
2770	0.000888
2782	0.000963
2794	0.001125
2806	0.001389
2818	0.001848
2830	0.002733
2842	0.004401
2854	0.007149
2866	0.011784
2878	0.015891
2890	0.016617
2902	0.015444
2914	0.015012
2926	0.017433
2938	0.018684
2950	0.019791
2962	0.028053
2974	0.028431
2986	0.016602
2998	0.008673
3010	0.006477
3022	0.00573
3034	0.004782
3046	0.003495
3058	0.0024
3070	0.001869
3082	0.001605
3094	0.001338
3106	0.001092
3118	0.000915
3130	0.000819
3142	0.000699
3154	0.000654
3166	0.000573
3178	0.000528
3190	0.000426
3202	0.000333
3214	0.000207
3226	0.000156
3238	0.00012
3250	0.000111
3262	0.000114
3274	6.6e-05
3286	4.8e-05
3298	6.6e-05
3310	6.6e-05
3322	6.9e-05
3334	6.9e-05
3346	8.7e-05
3358	9.6e-05
3370	8.1e-05
3382	0.000144
3394	0.000126
3406	0.000132
3418	0.00012
3430	0.000129
3442	0.000162
3454	0.000117
3466	0.00012
3478	0.000114
3490	9.6e-05
3502	0.000162
3514	0.000108
3526	9.9e-05
3538	6e-05
3550	8.4e-05
3562	9.9e-05
3574	8.7e-05
3586	0.000156
3598	0.000174
3610	0.000252
3622	0.000609
3634	0.001608
3646	0.003069
3658	0.002904
3670	0.001287
3682	0.000432
3694	0.000234
3706	0.000144
3718	0.000138
3730	0.000117
3742	9.6e-05
3754	5.1e-05
3766	2.4e-05
3778	0.000102
3790	0.000108
3802	0.000117
3814	0.000126
3826	0.000132
3838	0.000147
