Infrared Spectrum: P-PHENYLAZO CARBANILIC ACID, BORNYL ESTER
Formula: C23 H27 N3 O2
CAS: 96369-27-6
State: SOLID (1.9 mg / 100 mg KBr)
Melting point: 151-152 C
Class: COBLENTZ
Instrument: Not specified, most likely a grating spectrometer.
Sampling: TRANSMISSION
Resolution: 4
Origin: CITRUS EXPERIMENT STATION, UNIVERSITY OF FLORIDA (G. EDWARDS)
MICROMETERS	TRANSMITTANCE
2.033	0.709
2.06616	0.713
2.09932	0.72
2.13248	0.721
2.16564	0.722
2.1988	0.724
2.23196	0.728
2.26512	0.732
2.29829	0.732
2.33145	0.736
2.36461	0.741
2.39777	0.744
2.43093	0.745
2.46409	0.75
2.49725	0.76
2.53041	0.768
2.56357	0.769
2.59673	0.77
2.62989	0.773
2.66305	0.774
2.69621	0.776
2.72938	0.782
2.76254	0.78
2.7957	0.785
2.82886	0.785
2.86202	0.793
2.89518	0.789
2.92834	0.786
2.9615	0.774
2.99466	0.732
3.02782	0.622
3.06098	0.521
3.09414	0.629
3.1273	0.686
3.16046	0.729
3.19362	0.717
3.22679	0.736
3.25995	0.692
3.29311	0.724
3.32627	0.685
3.35943	0.506
3.39259	0.544
3.42575	0.644
3.45891	0.664
3.49207	0.728
3.52523	0.782
3.55839	0.788
3.59155	0.79
3.62471	0.797
3.65787	0.808
3.69104	0.812
3.7242	0.814
3.75736	0.817
3.79052	0.817
3.82368	0.814
3.85684	0.821
3.89	0.822
3.92316	0.824
3.95632	0.826
3.98948	0.828
4.02264	0.832
4.0558	0.832
4.08896	0.834
4.12213	0.837
4.15529	0.832
4.18845	0.832
4.22161	0.837
4.25477	0.834
4.28793	0.829
4.32109	0.83
4.35425	0.836
4.38741	0.837
4.42057	0.837
4.45373	0.836
4.48689	0.834
4.52005	0.842
4.55321	0.84
4.58638	0.844
4.61954	0.84
4.6527	0.848
4.68586	0.848
4.71902	0.848
4.75218	0.845
4.78534	0.844
4.8185	0.846
4.85166	0.846
4.88482	0.845
4.91798	0.845
4.95114	0.84
4.9843	0.838
5.01746	0.845
5.05063	0.834
5.08379	0.829
5.11695	0.842
5.15011	0.841
5.18327	0.837
5.21643	0.826
5.24959	0.834
5.28275	0.841
5.31591	0.838
5.34907	0.841
5.38223	0.841
5.41539	0.84
5.44855	0.838
5.48171	0.832
5.51487	0.83
5.54804	0.826
5.5812	0.826
5.61436	0.828
5.64752	0.824
5.68068	0.801
5.71384	0.766
5.747	0.741
5.78016	0.732
5.81332	0.618
5.84648	0.514
5.87964	0.262
5.9128	0.313
5.94596	0.621
5.97912	0.713
6.01229	0.741
6.04545	0.772
6.07861	0.782
6.11177	0.778
6.14493	0.753
6.17809	0.705
6.21125	0.604
6.24441	0.358
6.27757	0.325
6.31073	0.554
6.34389	0.69
6.37705	0.609
6.41021	0.376
6.44337	0.253
6.47654	0.301
6.5097	0.353
6.54286	0.54
6.57602	0.601
6.60918	0.605
6.64234	0.605
6.6755	0.645
6.70866	0.677
6.74182	0.661
6.77498	0.652
6.80814	0.628
6.8413	0.62
6.87446	0.61
6.90762	0.594
6.94079	0.573
6.97395	0.709
7.00711	0.722
7.04027	0.629
7.07343	0.474
7.10659	0.541
7.13975	0.681
7.17291	0.681
7.20607	0.712
7.23923	0.709
7.27239	0.658
7.30555	0.685
7.33871	0.713
7.37187	0.744
7.40504	0.752
7.4382	0.748
7.47136	0.741
7.50452	0.702
7.53768	0.636
7.57084	0.589
7.604	0.449
7.63716	0.296
7.67032	0.392
7.70348	0.552
7.73664	0.673
7.7698	0.701
7.80296	0.685
7.83613	0.682
7.86929	0.63
7.90245	0.546
7.93561	0.508
7.96877	0.434
8.00193	0.32
8.03509	0.12
8.06825	0.101
8.10141	0.176
8.13457	0.3
8.16773	0.364
8.20089	0.433
8.23405	0.512
8.26721	0.585
8.30038	0.632
8.33354	0.669
8.3667	0.676
8.39986	0.697
8.43302	0.718
8.46618	0.734
8.49934	0.74
8.5325	0.734
8.56566	0.712
8.59882	0.69
8.63198	0.622
8.66514	0.517
8.6983	0.58
8.73146	0.64
8.76463	0.606
8.79779	0.642
8.83095	0.706
8.86411	0.729
8.89727	0.72
8.93043	0.68
8.96359	0.573
8.99675	0.574
9.02991	0.644
9.06307	0.686
9.09623	0.721
9.12939	0.734
9.16255	0.733
9.19571	0.708
9.22888	0.628
9.26204	0.57
9.2952	0.565
9.32836	0.39
9.36152	0.268
9.39468	0.309
9.42784	0.432
9.461	0.528
9.49416	0.59
9.52732	0.633
9.56048	0.648
9.59364	0.66
9.6268	0.677
9.65996	0.673
9.69313	0.669
9.72629	0.668
9.75945	0.653
9.79261	0.613
9.82577	0.592
9.85893	0.618
9.89209	0.617
9.92525	0.638
9.95841	0.676
9.99157	0.688
10.0247	0.702
10.0579	0.71
10.0911	0.709
10.1242	0.697
10.1574	0.688
10.1905	0.676
10.2237	0.662
10.2569	0.677
10.29	0.71
10.3232	0.734
10.3563	0.738
10.3895	0.744
10.4227	0.752
10.4558	0.737
10.489	0.737
10.5221	0.744
10.5553	0.749
10.5885	0.749
10.6216	0.75
10.6548	0.75
10.6879	0.742
10.7211	0.753
10.7543	0.764
10.7874	0.752
10.8206	0.729
10.8537	0.732
10.8869	0.74
10.9201	0.752
10.9532	0.765
10.9864	0.772
11.0196	0.776
11.0527	0.784
11.0859	0.785
11.119	0.785
11.1522	0.782
11.1854	0.782
11.2185	0.778
11.2517	0.777
11.2848	0.774
11.318	0.777
11.3512	0.778
11.3843	0.778
11.4175	0.77
11.4506	0.765
11.4838	0.746
11.517	0.734
11.5501	0.748
11.5833	0.761
11.6164	0.766
11.6496	0.768
11.6828	0.756
11.7159	0.737
11.7491	0.67
11.7822	0.561
11.8154	0.47
11.8486	0.524
11.8817	0.581
11.9149	0.629
11.9481	0.656
11.9812	0.689
12.0144	0.718
12.0475	0.73
12.0807	0.734
12.1139	0.732
12.147	0.73
12.1802	0.738
12.2133	0.742
12.2465	0.748
12.2797	0.756
12.3128	0.754
12.346	0.752
12.3791	0.742
12.4123	0.73
12.4455	0.724
12.4786	0.72
12.5118	0.705
12.5449	0.685
12.5781	0.661
12.6113	0.646
12.6444	0.633
12.6776	0.622
12.7107	0.618
12.7439	0.629
12.7771	0.646
12.8102	0.652
12.8434	0.648
12.8766	0.644
12.9097	0.616
12.9429	0.582
12.976	0.537
13.0092	0.493
13.0424	0.46
13.0755	0.472
13.1087	0.514
13.1418	0.546
13.175	0.564
13.2082	0.582
13.2413	0.61
13.2745	0.63
13.3076	0.656
13.3408	0.669
13.374	0.677
13.4071	0.681
13.4403	0.682
13.4734	0.69
13.5066	0.694
13.5398	0.696
13.5729	0.698
13.6061	0.706
13.6393	0.71
13.6724	0.713
13.7056	0.705
13.7387	0.702
13.7719	0.698
13.8051	0.693
13.8382	0.68
13.8714	0.664
13.9045	0.629
13.9377	0.589
13.9709	0.578
14.004	0.593
14.0372	0.61
14.0703	0.62
14.1035	0.626
14.1367	0.626
14.1698	0.633
14.203	0.634
14.2361	0.645
14.2693	0.637
14.3025	0.641
14.3356	0.641
14.3688	0.633
14.4019	0.625
14.4351	0.613
14.4683	0.576
14.5014	0.53
14.5346	0.492
14.5678	0.481
14.6009	0.52
14.6341	0.569
14.6672	0.628
14.7004	0.66
14.7336	0.674
14.7667	0.693
14.7999	0.698
14.833	0.698
14.8662	0.698
14.8994	0.678
14.9325	0.665
14.9657	0.688
14.9988	0.718
15.032	0.721
