Infrared Spectrum: 3,3-DIMETHYL-2-BUTANONE, 2,4-DINITROPHENYL HYDRAZONE
Formula: C12 H16 N4 O4
CAS: 964-53-4
State: SOLID (KBr PELLET)
Melting point: 127 C
Class: COBLENTZ
Instrument: PERKIN-ELMER (GRATING)
Sampling: TRANSMISSION
Resolution: 4
Origin: CITRUS EXPERIMENT STATION, UNIVERSITY OF FLORIDA (G. EDWARDS)
MICROMETERS	TRANSMITTANCE
2.027	0.453
2.06038	0.457
2.09376	0.459
2.12714	0.462
2.16053	0.463
2.19391	0.463
2.22729	0.466
2.26067	0.467
2.29405	0.469
2.32743	0.47
2.36082	0.471
2.3942	0.478
2.42758	0.478
2.46096	0.481
2.49434	0.482
2.52772	0.483
2.5611	0.489
2.59449	0.489
2.62787	0.485
2.66125	0.49
2.69463	0.49
2.72801	0.49
2.76139	0.481
2.79477	0.481
2.82816	0.475
2.86154	0.473
2.89492	0.471
2.9283	0.473
2.96168	0.481
2.99506	0.463
3.02845	0.463
3.06183	0.514
3.09521	0.526
3.12859	0.537
3.16197	0.54
3.19535	0.501
3.22873	0.501
3.26212	0.52
3.2955	0.513
3.32888	0.482
3.36226	0.331
3.39564	0.356
3.42902	0.399
3.4624	0.426
3.49579	0.457
3.52917	0.51
3.56255	0.52
3.59593	0.52
3.62931	0.521
3.66269	0.524
3.69608	0.522
3.72946	0.522
3.76284	0.526
3.79622	0.528
3.8296	0.528
3.86298	0.53
3.89636	0.53
3.92975	0.532
3.96313	0.532
3.99651	0.53
4.02989	0.532
4.06327	0.532
4.09665	0.533
4.13003	0.533
4.16342	0.533
4.1968	0.536
4.23018	0.538
4.26356	0.538
4.29694	0.54
4.33032	0.54
4.36371	0.54
4.39709	0.54
4.43047	0.541
4.46385	0.541
4.49723	0.542
4.53061	0.542
4.56399	0.542
4.59738	0.541
4.63076	0.545
4.66414	0.545
4.69752	0.546
4.7309	0.545
4.76428	0.548
4.79766	0.548
4.83105	0.545
4.86443	0.544
4.89781	0.546
4.93119	0.546
4.96457	0.549
4.99795	0.549
5.03134	0.544
5.06472	0.546
5.0981	0.55
5.13148	0.55
5.16486	0.55
5.19824	0.55
5.23162	0.55
5.26501	0.55
5.29839	0.552
5.33177	0.55
5.36515	0.55
5.39853	0.546
5.43191	0.546
5.46529	0.546
5.49868	0.55
5.53206	0.55
5.56544	0.55
5.59882	0.549
5.6322	0.545
5.66558	0.542
5.69897	0.536
5.73235	0.534
5.76573	0.537
5.79911	0.536
5.83249	0.537
5.86587	0.537
5.89925	0.536
5.93264	0.53
5.96602	0.53
5.9994	0.526
6.03278	0.517
6.06616	0.471
6.09954	0.427
6.13293	0.265
6.16631	0.095
6.19969	0.194
6.23307	0.301
6.26645	0.203
6.29983	0.313
6.33321	0.42
6.3666	0.482
6.39998	0.502
6.43336	0.501
6.46674	0.423
6.50012	0.406
6.5335	0.361
6.56688	0.257
6.60027	0.262
6.63365	0.272
6.66703	0.371
6.70041	0.441
6.73379	0.42
6.76717	0.414
6.80056	0.422
6.83394	0.432
6.86732	0.434
6.9007	0.436
6.93408	0.454
6.96746	0.412
7.00084	0.336
7.03423	0.32
7.06761	0.441
7.10099	0.542
7.13437	0.544
7.16775	0.53
7.20113	0.541
7.23451	0.521
7.2679	0.43
7.30128	0.34
7.33466	0.264
7.36804	0.293
7.40142	0.211
7.4348	0.097
7.46819	0.144
7.50157	0.23
7.53495	0.361
7.56833	0.364
7.60171	0.201
7.63509	0.211
7.66847	0.219
7.70186	0.164
7.73524	0.19
7.76862	0.302
7.802	0.365
7.83538	0.351
7.86876	0.293
7.90214	0.239
7.93553	0.269
7.96891	0.312
8.00229	0.408
8.03567	0.475
8.06905	0.506
8.10243	0.508
8.13582	0.485
8.1692	0.443
8.20258	0.396
8.23596	0.416
8.26934	0.475
8.30272	0.502
8.3361	0.5
8.36949	0.51
8.40287	0.524
8.43625	0.53
8.46963	0.533
8.50301	0.532
8.53639	0.526
8.56977	0.512
8.60316	0.478
8.63654	0.459
8.66992	0.47
8.7033	0.449
8.73668	0.373
8.77006	0.306
8.80345	0.306
8.83683	0.317
8.87021	0.36
8.90359	0.412
8.93697	0.445
8.97035	0.45
9.00373	0.445
9.03712	0.438
9.0705	0.432
9.10388	0.424
9.13726	0.411
9.17064	0.391
9.20402	0.352
9.2374	0.304
9.27079	0.302
9.30417	0.363
9.33755	0.432
9.37093	0.474
9.40431	0.487
9.43769	0.465
9.47108	0.441
9.50446	0.469
9.53784	0.502
9.57122	0.52
9.6046	0.525
9.63798	0.526
9.67136	0.52
9.70475	0.501
9.73813	0.49
9.77151	0.506
9.80489	0.526
9.83827	0.536
9.87165	0.541
9.90504	0.549
9.93842	0.553
9.9718	0.56
10.0052	0.56
10.0386	0.56
10.0719	0.56
10.1053	0.557
10.1387	0.557
10.1721	0.549
10.2055	0.548
10.2389	0.554
10.2722	0.571
10.3056	0.575
10.339	0.577
10.3724	0.577
10.4058	0.577
10.4391	0.577
10.4725	0.579
10.5059	0.579
10.5393	0.58
10.5727	0.579
10.606	0.579
10.6394	0.575
10.6728	0.571
10.7062	0.569
10.7396	0.564
10.773	0.552
10.8063	0.517
10.8397	0.487
10.8731	0.505
10.9065	0.516
10.9399	0.504
10.9732	0.51
11.0066	0.486
11.04	0.51
11.0734	0.55
11.1068	0.569
11.1402	0.575
11.1735	0.576
11.2069	0.575
11.2403	0.573
11.2737	0.573
11.3071	0.576
11.3404	0.573
11.3738	0.572
11.4072	0.569
11.4406	0.568
11.474	0.564
11.5073	0.556
11.5407	0.552
11.5741	0.554
11.6075	0.561
11.6409	0.561
11.6743	0.554
11.7076	0.522
11.741	0.459
11.7744	0.455
11.8078	0.442
11.8412	0.453
11.8745	0.504
11.9079	0.495
11.9413	0.495
11.9747	0.513
12.0081	0.494
12.0415	0.451
12.0748	0.5
12.1082	0.544
12.1416	0.552
12.175	0.552
12.2084	0.55
12.2417	0.549
12.2751	0.549
12.3085	0.548
12.3419	0.545
12.3753	0.544
12.4086	0.544
12.442	0.545
12.4754	0.541
12.5088	0.541
12.5422	0.542
12.5756	0.541
12.6089	0.541
12.6423	0.541
12.6757	0.545
12.7091	0.549
12.7425	0.553
12.7758	0.561
12.8092	0.569
12.8426	0.576
12.876	0.581
12.9094	0.584
12.9428	0.585
12.9761	0.587
13.0095	0.589
13.0429	0.584
13.0763	0.575
13.1097	0.565
13.143	0.572
13.1764	0.585
13.2098	0.589
13.2432	0.588
13.2766	0.584
13.3099	0.571
13.3433	0.558
13.3767	0.544
13.4101	0.514
13.4435	0.451
13.4769	0.379
13.5102	0.375
13.5436	0.43
13.577	0.512
13.6104	0.568
13.6438	0.588
13.6771	0.593
13.7105	0.599
13.7439	0.603
13.7773	0.604
13.8107	0.604
13.8441	0.603
13.8774	0.603
13.9108	0.6
13.9442	0.6
13.9776	0.6
14.011	0.6
14.0443	0.6
14.0777	0.592
14.1111	0.579
14.1445	0.564
14.1779	0.538
14.2112	0.505
14.2446	0.487
14.278	0.49
14.3114	0.508
14.3448	0.532
14.3782	0.557
14.4115	0.573
14.4449	0.58
14.4783	0.584
14.5117	0.581
14.5451	0.579
14.5784	0.577
14.6118	0.577
14.6452	0.588
14.6786	0.599
14.712	0.6
14.7454	0.607
14.7787	0.608
14.8121	0.601
14.8455	0.62
14.8789	0.626
14.9123	0.626
14.9456	0.626
14.979	0.624
