Infrared Spectrum: UREA,] 1,1'-TRIMETHYLENEBIS[3-(1,2,3,4-TETRAHYDRO-2,4-DIOXO-5-PYRIMIDINYL)-
Formula: C13 H16 N8 O6
CAS: 96432-16-5
State: SOLID (0.7 mg / 500 mg KBr DISC)
Class: COBLENTZ III
Instrument: PERKIN-ELMER 21 (GRATING)
Instrument parameters: NaCl PRISM, FILTER CHANGE ABOUT 980 CM^-^1
Sampling: TRANSMISSION
Resolution: 4
Origin: SOUTHERN RES. INSTITUTE
1/CM	TRANSMITTANCE
601.999	0.618
611.137	0.614
620.276	0.608
629.414	0.598
638.553	0.586
647.691	0.564
656.83	0.562
665.968	0.569
675.107	0.595
684.245	0.641
693.384	0.668
702.522	0.689
711.661	0.688
720.799	0.67
729.938	0.625
739.076	0.607
748.215	0.585
757.353	0.522
766.492	0.568
775.63	0.631
784.769	0.652
793.907	0.655
803.046	0.675
812.184	0.687
821.323	0.693
830.461	0.694
839.6	0.682
848.738	0.649
857.877	0.592
867.015	0.61
876.154	0.633
885.292	0.627
894.431	0.598
903.569	0.631
912.708	0.695
921.846	0.738
930.985	0.778
940.123	0.791
949.262	0.793
958.4	0.79
967.539	0.787
976.677	0.758
985.816	0.755
994.954	0.74
1004.09	0.72
1013.23	0.716
1022.37	0.733
1031.51	0.741
1040.65	0.739
1049.79	0.728
1058.92	0.717
1068.06	0.708
1077.2	0.705
1086.34	0.711
1095.48	0.742
1104.62	0.677
1113.75	0.665
1122.89	0.638
1132.03	0.623
1141.17	0.604
1150.31	0.552
1159.45	0.482
1168.59	0.446
1177.72	0.425
1186.86	0.545
1196	0.58
1205.14	0.555
1214.28	0.489
1223.42	0.398
1232.56	0.302
1241.69	0.267
1250.83	0.353
1259.97	0.48
1269.11	0.535
1278.25	0.536
1287.39	0.511
1296.52	0.562
1305.66	0.649
1314.8	0.667
1323.94	0.654
1333.08	0.636
1342.22	0.595
1351.36	0.459
1360.49	0.388
1369.63	0.52
1378.77	0.63
1387.91	0.626
1397.05	0.589
1406.19	0.569
1415.33	0.55
1424.46	0.501
1433.6	0.408
1442.74	0.364
1451.88	0.405
1461.02	0.424
1470.16	0.374
1479.29	0.278
1488.43	0.318
1497.57	0.442
1506.71	0.461
1515.85	0.433
1524.99	0.385
1534.13	0.336
1543.26	0.278
1552.4	0.208
1561.54	0.154
1570.68	0.125
1579.82	0.147
1588.96	0.224
1598.1	0.308
1607.23	0.369
1616.37	0.293
1625.51	0.141
1634.65	0.089
1643.79	0.035
1652.93	0.061
1662.06	0.084
1671.2	0.123
1680.34	0.157
1689.48	0.182
1698.62	0.209
1707.76	0.192
1716.9	0.139
1726.03	0.13
1735.17	0.17
1744.31	0.26
1753.45	0.337
1762.59	0.401
1771.73	0.437
1780.87	0.478
1790	0.538
1799.14	0.58
1808.28	0.622
1817.42	0.664
1826.56	0.694
1835.7	0.712
1844.83	0.724
1853.97	0.745
1863.11	0.756
1872.25	0.771
1881.39	0.782
1890.53	0.786
1899.67	0.79
1908.8	0.796
1917.94	0.811
1927.08	0.822
1936.22	0.828
1945.36	0.836
1954.5	0.838
1963.64	0.838
1972.77	0.838
1981.91	0.839
1991.05	0.841
2000.19	0.842
2009.33	0.844
2018.47	0.847
2027.6	0.856
2036.74	0.858
2045.88	0.86
2055.02	0.86
2064.16	0.861
2073.3	0.862
2082.44	0.864
2091.57	0.865
2100.71	0.864
2109.85	0.863
2118.99	0.862
2128.13	0.861
2137.27	0.86
2146.41	0.859
2155.54	0.855
2164.68	0.861
2173.82	0.858
2182.96	0.857
2192.1	0.855
2201.24	0.852
2210.37	0.852
2219.51	0.853
2228.65	0.855
2237.79	0.855
2246.93	0.854
2256.07	0.852
2265.21	0.852
2274.34	0.85
2283.48	0.849
2292.62	0.849
2301.76	0.85
2310.9	0.845
2320.04	0.845
2329.17	0.844
2338.31	0.836
2347.45	0.835
2356.59	0.832
2365.73	0.825
2374.87	0.822
2384.01	0.82
2393.14	0.819
2402.28	0.818
2411.42	0.813
2420.56	0.81
2429.7	0.808
2438.84	0.807
2447.98	0.807
2457.11	0.807
2466.25	0.803
2475.39	0.802
2484.53	0.802
2493.67	0.798
2502.81	0.797
2511.94	0.794
2521.08	0.788
2530.22	0.786
2539.36	0.781
2548.5	0.778
2557.64	0.774
2566.78	0.771
2575.91	0.768
2585.05	0.765
2594.19	0.757
2603.33	0.745
2612.47	0.74
2621.61	0.733
2630.75	0.728
2639.88	0.72
2649.02	0.714
2658.16	0.712
2667.3	0.709
2676.44	0.706
2685.58	0.702
2694.71	0.699
2703.85	0.689
2712.99	0.681
2722.13	0.672
2731.27	0.659
2740.41	0.648
2749.55	0.627
2758.68	0.604
2767.82	0.583
2776.96	0.554
2786.1	0.535
2795.24	0.516
2804.38	0.52
2813.52	0.534
2822.65	0.554
2831.79	0.559
2840.93	0.56
2850.07	0.556
2859.21	0.543
2868.35	0.54
2877.48	0.53
2886.62	0.524
2895.76	0.519
2904.9	0.486
2914.04	0.474
2923.18	0.47
2932.32	0.466
2941.45	0.459
2950.59	0.45
2959.73	0.442
2968.87	0.437
2978.01	0.428
2987.15	0.419
2996.29	0.412
3005.42	0.414
3014.56	0.418
3023.7	0.431
3032.84	0.45
3041.98	0.453
3051.12	0.458
3060.25	0.456
3069.39	0.45
3078.53	0.444
3087.67	0.437
3096.81	0.428
3105.95	0.418
3115.09	0.401
3124.22	0.392
3133.36	0.389
3142.5	0.389
3151.64	0.392
3160.78	0.382
3169.92	0.371
3179.06	0.356
3188.19	0.343
3197.33	0.34
3206.47	0.324
3215.61	0.318
3224.75	0.324
3233.89	0.337
3243.02	0.337
3252.16	0.346
3261.3	0.348
3270.44	0.342
3279.58	0.337
3288.72	0.324
3297.86	0.317
3306.99	0.313
3316.13	0.305
3325.27	0.282
3334.41	0.27
3343.55	0.227
3352.69	0.216
3361.83	0.229
3370.96	0.251
3380.1	0.288
3389.24	0.365
3398.38	0.417
3407.52	0.46
3416.66	0.489
3425.79	0.514
3434.93	0.536
3444.07	0.562
3453.21	0.572
3462.35	0.581
3471.49	0.589
3480.63	0.595
3489.76	0.607
3498.9	0.62
3508.04	0.635
3517.18	0.641
3526.32	0.652
3535.46	0.66
3544.6	0.672
3553.73	0.681
3562.87	0.695
3572.01	0.711
3581.15	0.72
3590.29	0.728
3599.43	0.745
3608.56	0.755
3617.7	0.762
3626.84	0.767
3635.98	0.771
3645.12	0.775
3654.26	0.78
3663.4	0.781
3672.53	0.781
3681.67	0.785
3690.81	0.787
3699.95	0.79
3709.09	0.787
3718.23	0.782
3727.37	0.784
3736.5	0.784
3745.64	0.784
3754.78	0.786
3763.92	0.779
3773.06	0.779
3782.2	0.781
3791.33	0.78
3800.47	0.778
3809.61	0.776
3818.75	0.775
3827.89	0.774
3837.03	0.774
3846.17	0.774
3855.3	0.772
3864.44	0.77
3873.58	0.768
3882.72	0.768
3891.86	0.768
3901	0.768
3910.14	0.767
3919.27	0.764
3928.41	0.765
3937.55	0.764
3946.69	0.763
3955.83	0.762
3964.97	0.759
3974.1	0.758
3983.24	0.758
3992.38	0.758
4001.52	0.757
