Infrared Spectrum: 1-(N,N-DIMETHYLTHIOCARBAMOYLTHIO)-2-PROPANONE 2,4-DINITROPHENYL-HYDRAZONE
Formula: C12 H15 N5 O4 S2
CAS: 96432-96-1
State: SOLID (KBr PELLET)
Melting point: 157.5 C
Class: COBLENTZ
Instrument: Not specified, most likely a prism, grating, or hybrid spectrometer.
Sampling: TRANSMISSION
Resolution: 4
Origin: EASTMAN KODAK COMPANY, RESEARCH LABORATORIES, ROCHESTER, N.Y.
MICROMETERS	TRANSMITTANCE
2.02	0.395
2.06006	0.403
2.10011	0.41
2.14017	0.413
2.18023	0.417
2.22028	0.422
2.26034	0.423
2.3004	0.431
2.34045	0.44
2.38051	0.448
2.42057	0.454
2.46062	0.461
2.50068	0.471
2.54073	0.479
2.58079	0.486
2.62085	0.489
2.6609	0.5
2.70096	0.513
2.74102	0.518
2.78107	0.525
2.82113	0.525
2.86119	0.52
2.90124	0.517
2.9413	0.512
2.98136	0.51
3.02141	0.43
3.06147	0.52
3.10153	0.54
3.14158	0.55
3.18164	0.561
3.2217	0.545
3.26175	0.522
3.30181	0.551
3.34186	0.563
3.38192	0.559
3.42198	0.52
3.46203	0.528
3.50209	0.499
3.54215	0.459
3.5822	0.545
3.62226	0.568
3.66232	0.573
3.70237	0.599
3.74243	0.612
3.78249	0.619
3.82254	0.622
3.8626	0.63
3.90266	0.638
3.94271	0.643
3.98277	0.65
4.02283	0.66
4.06288	0.661
4.10294	0.668
4.14299	0.673
4.18305	0.683
4.22311	0.694
4.26316	0.696
4.30322	0.699
4.34328	0.702
4.38333	0.711
4.42339	0.719
4.46345	0.724
4.5035	0.74
4.54356	0.742
4.58362	0.747
4.62367	0.75
4.66373	0.753
4.70379	0.76
4.74384	0.761
4.7839	0.763
4.82396	0.768
4.86401	0.77
4.90407	0.775
4.94412	0.783
4.98418	0.791
5.02424	0.796
5.06429	0.798
5.10435	0.798
5.14441	0.798
5.18446	0.799
5.22452	0.802
5.26458	0.809
5.30463	0.816
5.34469	0.821
5.38475	0.822
5.4248	0.829
5.46486	0.832
5.50492	0.832
5.54497	0.832
5.58503	0.834
5.62509	0.84
5.66514	0.844
5.7052	0.85
5.74525	0.85
5.78531	0.85
5.82537	0.85
5.86542	0.85
5.90548	0.85
5.94554	0.848
5.98559	0.837
6.02565	0.789
6.06571	0.756
6.10576	0.661
6.14582	0.367
6.18588	0.087
6.22593	0.052
6.26599	0.047
6.30605	0.052
6.3461	0.131
6.38616	0.275
6.42622	0.44
6.46627	0.512
6.50633	0.495
6.54638	0.359
6.58644	0.29
6.6265	0.178
6.66655	0.103
6.70661	0.096
6.74667	0.187
6.78672	0.3
6.82678	0.42
6.86684	0.44
6.90689	0.354
6.94695	0.262
6.98701	0.252
7.02706	0.17
7.06712	0.129
7.10718	0.231
7.14723	0.326
7.18729	0.389
7.22735	0.354
7.2674	0.229
7.30746	0.139
7.34751	0.133
7.38757	0.105
7.42763	0.121
7.46768	0.139
7.50774	0.083
7.5478	0.027
7.58785	0.041
7.62791	0.093
7.66797	0.052
7.70802	0.062
7.74808	0.151
7.78814	0.137
7.82819	0.032
7.86825	0.052
7.90831	0.152
7.94836	0.269
7.98842	0.192
8.02848	0.108
8.06853	0.236
8.10859	0.369
8.14864	0.367
8.1887	0.272
8.22876	0.28
8.26881	0.415
8.30887	0.528
8.34893	0.577
8.38898	0.581
8.42904	0.609
8.4691	0.61
8.50915	0.589
8.54921	0.559
8.58927	0.561
8.62932	0.551
8.66938	0.461
8.70944	0.339
8.74949	0.251
8.78955	0.167
8.82961	0.11
8.86966	0.106
8.90972	0.18
8.94978	0.21
8.98983	0.241
9.02989	0.28
9.06994	0.295
9.11	0.3
9.15006	0.261
9.19011	0.155
9.23017	0.113
9.27023	0.198
9.31028	0.316
9.35034	0.449
9.3904	0.505
9.43045	0.49
9.47051	0.361
9.51057	0.376
9.55062	0.471
9.59068	0.54
9.63074	0.584
9.67079	0.632
9.71085	0.673
9.75091	0.683
9.79096	0.683
9.83102	0.683
9.87107	0.679
9.91113	0.643
9.95119	0.617
9.99124	0.612
10.0313	0.581
10.0714	0.492
10.1114	0.441
10.1515	0.392
10.1915	0.338
10.2316	0.231
10.2716	0.141
10.3117	0.133
10.3518	0.136
10.3918	0.215
10.4319	0.384
10.4719	0.522
10.512	0.61
10.552	0.651
10.5921	0.709
10.6321	0.74
10.6722	0.755
10.7123	0.775
10.7523	0.779
10.7924	0.766
10.8324	0.623
10.8725	0.555
10.9125	0.663
10.9526	0.72
10.9927	0.645
11.0327	0.517
11.0728	0.599
11.1128	0.765
11.1529	0.812
11.1929	0.821
11.233	0.824
11.2731	0.825
11.3131	0.821
11.3532	0.814
11.3932	0.798
11.4333	0.771
11.4733	0.711
11.5134	0.614
11.5534	0.54
11.5935	0.556
11.6336	0.584
11.6736	0.581
11.7137	0.54
11.7537	0.571
11.7938	0.696
11.8338	0.756
11.8739	0.702
11.914	0.66
11.954	0.651
11.9941	0.422
12.0341	0.302
12.0742	0.497
12.1142	0.701
12.1543	0.735
12.1944	0.692
12.2344	0.61
12.2745	0.63
12.3145	0.743
12.3546	0.821
12.3946	0.845
12.4347	0.855
12.4747	0.866
12.5148	0.894
12.5549	0.904
12.5949	0.911
12.635	0.916
12.675	0.922
12.7151	0.927
12.7551	0.932
12.7952	0.934
12.8353	0.937
12.8753	0.94
12.9154	0.942
12.9554	0.944
12.9955	0.947
13.0355	0.944
13.0756	0.878
13.1157	0.84
13.1557	0.891
13.1958	0.912
13.2358	0.912
13.2759	0.914
13.3159	0.909
13.356	0.853
13.396	0.674
13.4361	0.471
13.4762	0.288
13.5162	0.39
13.5563	0.49
13.5963	0.484
13.6364	0.487
13.6764	0.528
13.7165	0.569
13.7566	0.62
13.7966	0.706
13.8367	0.752
13.8767	0.763
13.9168	0.763
13.9568	0.763
13.9969	0.765
14.037	0.801
14.077	0.85
14.1171	0.87
14.1571	0.88
14.1972	0.886
14.2372	0.891
14.2773	0.894
14.3173	0.898
14.3574	0.901
14.3975	0.908
14.4375	0.911
14.4776	0.911
14.5176	0.906
14.5577	0.883
14.5977	0.86
14.6378	0.858
14.6779	0.863
14.7179	0.875
14.758	0.883
14.798	0.889
14.8381	0.896
14.8781	0.904
14.9182	0.911
14.9583	0.911
14.9983	0.911
15.0384	0.911
15.0784	0.909
15.1185	0.891
15.1585	0.84
15.1986	0.765
15.2386	0.722
15.2787	0.724
15.3188	0.75
15.3588	0.789
15.3989	0.832
15.4389	0.857
15.479	0.86
15.519	0.862
15.5591	0.868
15.5992	0.871
15.6392	0.873
15.6793	0.875
15.7193	0.875
15.7594	0.875
15.7994	0.875
15.8395	0.873
15.8796	0.871
15.9196	0.87
15.9597	0.868
15.9997	0.868
