Infrared Spectrum: Androst-5-ene-16Beta-propionic acid,3Beta,17Beta-dihydroxy-, Delta-lactone, acetate
Formula: C24 H34 O4
CAS: 96465-15-5
State: SOLUTION 7% (CHCl3 FOR 2.5-12.5 microns)
Melting point: 237-238 C
Class: COBLENTZ
Instrument: PERKIN-ELMER 421 (GRATING)
Instrument parameters: GRATING CHANGE AT 1999 CM^-^
Path length: 0.01 CM
Resolution: 2
Origin: ABBOTT LABORATORIES
1/CM	TRANSMITTANCE
807	0.9313
815	0.9307
823	0.8959
831	0.9077
839	0.9055
847	0.8894
855	0.88
863	0.8766
871	0.8506
879	0.8629
887	0.8633
895	0.8112
903	0.8373
911	0.8933
919	0.8785
927	0.8508
935	0.7457
943	0.8123
951	0.7906
959	0.733
967	0.7643
975	0.7558
983	0.7437
991	0.7067
999	0.672
1007	0.4981
1015	0.3548
1023	0.2984
1031	0.3832
1039	0.6241
1047	0.6214
1055	0.5259
1063	0.476
1071	0.3797
1079	0.5874
1087	0.6982
1095	0.688
1103	0.696
1111	0.6923
1119	0.6683
1127	0.6259
1135	0.4998
1143	0.5313
1151	0.7033
1159	0.6669
1167	0.6282
1175	0.5896
1183	0.5509
1191	0.5123
1199	0.4736
1207	0.4349
1215	0.3963
1223	0.3576
1231	0.3026
1239	0.2088
1247	0.1069
1255	0.1488
1263	0.2654
1271	0.6518
1279	0.7512
1287	0.7922
1295	0.8112
1303	0.8113
1311	0.7891
1319	0.7946
1327	0.6236
1335	0.6229
1343	0.7022
1351	0.6168
1359	0.4595
1367	0.4579
1375	0.5417
1383	0.6545
1391	0.7742
1399	0.8223
1407	0.8242
1415	0.7845
1423	0.7565
1431	0.695
1439	0.7505
1447	0.6928
1455	0.677
1463	0.7508
1471	0.8669
1479	0.8971
1487	0.9191
1495	0.9411
1503	0.9528
1511	0.951
1519	0.9462
1527	0.9328
1535	0.9133
1543	0.9022
1551	0.9011
1559	0.9012
1567	0.9008
1575	0.9001
1583	0.8986
1591	0.8923
1599	0.8832
1607	0.8791
1615	0.8817
1623	0.8724
1631	0.8603
1639	0.8507
1647	0.8419
1655	0.8145
1663	0.7905
1671	0.7749
1679	0.7302
1687	0.5427
1695	0.3381
1703	0.1386
1711	0.0766
1719	0.0607
1727	0.2044
1735	0.4041
1743	0.5414
1751	0.6468
1759	0.8008
1767	0.8154
1775	0.835
1783	0.8663
1791	0.8759
1799	0.8822
1807	0.8869
1815	0.8913
1823	0.8953
1831	0.8991
1839	0.9004
1847	0.8998
1855	0.9002
1863	0.9023
1871	0.9043
1879	0.9051
1887	0.9051
1895	0.9044
1903	0.9044
1911	0.9046
1919	0.9048
1927	0.905
1935	0.9051
1943	0.9058
1951	0.9062
1959	0.9063
1967	0.9069
1975	0.9071
1983	0.9068
1991	0.9066
1999	0.9066
2007	0.9061
2015	0.9054
2023	0.9055
2031	0.9066
2039	0.9078
2047	0.9078
2055	0.9075
2063	0.9066
2071	0.906
2079	0.9058
2087	0.9052
2095	0.9045
2103	0.9043
2111	0.9041
2119	0.9043
2127	0.9045
2135	0.9051
2143	0.9059
2151	0.9067
2159	0.9076
2167	0.9072
2175	0.9045
2183	0.9038
2191	0.9034
2199	0.9036
2207	0.9043
2215	0.9055
2223	0.9045
2231	0.9009
2239	0.9024
2247	0.9019
2255	0.901
2263	0.9016
2271	0.9029
2279	0.9032
2287	0.9067
2295	0.9124
2303	0.9167
2311	0.9193
2319	0.92
2327	0.9204
2335	0.9204
2343	0.9205
2351	0.9188
2359	0.9209
2367	0.9258
2375	0.9331
2383	0.951
2391	0.9415
2399	0.9273
2407	0.9147
2415	0.9075
2423	0.9054
2431	0.8959
2439	0.8903
2447	0.8903
2455	0.8908
2463	0.892
2471	0.8931
2479	0.8937
2487	0.8942
2495	0.8949
2503	0.8959
2511	0.8968
2519	0.8971
2527	0.8973
2535	0.897
2543	0.8965
2551	0.8959
2559	0.8952
2567	0.8945
2575	0.8937
2583	0.8926
2591	0.8915
2599	0.8907
2607	0.89
2615	0.8896
2623	0.8895
2631	0.8894
2639	0.8891
2647	0.8889
2655	0.8886
2663	0.8884
2671	0.8883
2679	0.8882
2687	0.8881
2695	0.8883
2703	0.8884
2711	0.8885
2719	0.8884
2727	0.8873
2735	0.8852
2743	0.8831
2751	0.8812
2759	0.8794
2767	0.8775
2775	0.8744
2783	0.869
2791	0.8598
2799	0.8405
2807	0.807
2815	0.727
2823	0.6851
2831	0.658
2839	0.6064
2847	0.6084
2855	0.6402
2863	0.5933
2871	0.6149
2879	0.5738
2887	0.5115
2895	0.4573
2903	0.4696
2911	0.4764
2919	0.4419
2927	0.3606
2935	0.3133
2943	0.3395
2951	0.4359
2959	0.4546
2967	0.4999
2975	0.5722
2983	0.6412
2991	0.6596
2999	0.7311
3007	0.7711
3015	0.7747
3023	0.803
3031	0.8361
3039	0.8714
3047	0.8812
3055	0.8841
3063	0.8849
3071	0.8789
3079	0.8728
3087	0.8673
3095	0.8648
3103	0.8621
3111	0.8591
3119	0.8591
3127	0.8628
3135	0.8654
3143	0.8677
3151	0.8703
3159	0.8732
3167	0.8755
3175	0.8785
3183	0.8806
3191	0.8823
3199	0.8838
3207	0.8849
3215	0.886
3223	0.8869
3231	0.8876
3239	0.8878
3247	0.8877
3255	0.8876
3263	0.8876
3271	0.8876
3279	0.8876
3287	0.8876
3295	0.8876
3303	0.8872
3311	0.8869
3319	0.8865
3327	0.8861
3335	0.8856
3343	0.8848
3351	0.8839
3359	0.8832
3367	0.8823
3375	0.8812
3383	0.8801
3391	0.8787
3399	0.8774
3407	0.8769
3415	0.8775
3423	0.8784
3431	0.8795
3439	0.8815
3447	0.8839
3455	0.8864
3463	0.8883
3471	0.8894
3479	0.8898
3487	0.8901
3495	0.8902
3503	0.8899
3511	0.8897
3519	0.8911
3527	0.8941
3535	0.8964
3543	0.8974
3551	0.8983
3559	0.8993
3567	0.9005
3575	0.9016
3583	0.9025
3591	0.9031
3599	0.9031
3607	0.9029
3615	0.902
3623	0.9011
3631	0.9012
3639	0.9014
3647	0.9028
3655	0.9046
3663	0.9077
3671	0.9109
3679	0.9095
3687	0.9062
3695	0.9039
3703	0.9035
3711	0.9045
3719	0.9049
3727	0.9054
3735	0.9058
3743	0.9062
3751	0.9065
3759	0.9066
3767	0.9061
3775	0.9054
3783	0.9032
3791	0.8998
3799	0.8979
3807	0.8977
3815	0.8978
3823	0.898
3831	0.8979
3839	0.8977
3847	0.8966
3855	0.8954
3863	0.8943
3871	0.8933
3879	0.8932
3887	0.8934
3895	0.8937
3903	0.894
3911	0.8941
3919	0.8943
3927	0.8942
3935	0.894
3943	0.8941
3951	0.8939
3959	0.8936
3967	0.8932
3975	0.8927
3983	0.8927
3991	0.8926
3999	0.8924
