Infrared Spectrum: Androst-5-ene-16Beta-propionic acid,3Beta,17Beta-dihydroxy-, Delta-lactone
Formula: C22 H32 O3
CAS: 96584-50-8
State: SOLUTION 7% (CHCl3 FOR 2.5-12.5 microns)
Class: COBLENTZ
Instrument: PERKIN-ELMER 21 (GRATING)
Instrument parameters: FILTER AT ABOUT 10 MICRONS
Path length: 0.01 CM
Resolution: 2
Origin: ABBOTT LABORATORIES
1/CM	TRANSMITTANCE
804	0.9081
812	0.9174
820	0.8991
828	0.8336
836	0.8656
844	0.887
852	0.8821
860	0.8859
868	0.8825
876	0.8756
884	0.8899
892	0.8901
900	0.8903
908	0.8904
916	0.8887
924	0.8698
932	0.7342
940	0.7883
948	0.7499
956	0.7424
964	0.7532
972	0.813
980	0.7759
988	0.7821
996	0.7574
1004	0.6619
1012	0.5126
1020	0.3701
1028	0.3432
1036	0.4374
1044	0.4751
1052	0.4495
1060	0.4443
1068	0.3268
1076	0.4538
1084	0.7285
1092	0.7536
1100	0.7659
1108	0.7887
1116	0.7638
1124	0.6831
1132	0.5607
1140	0.6445
1148	0.7255
1156	0.6605
1164	0.5352
1172	0.4077
1180	0.5461
1188	0.7608
1196	0.6677
1204	0.6414
1212	0.6154
1220	0.5898
1228	0.5645
1236	0.539
1244	0.3877
1252	0.345
1260	0.5913
1268	0.7626
1276	0.7816
1284	0.7921
1292	0.8236
1300	0.8173
1308	0.7864
1316	0.7143
1324	0.566
1332	0.5321
1340	0.6471
1348	0.6028
1356	0.5715
1364	0.5797
1372	0.6193
1380	0.6551
1388	0.7293
1396	0.8196
1404	0.8171
1412	0.7773
1420	0.7783
1428	0.7301
1436	0.7588
1444	0.6517
1452	0.6509
1460	0.7305
1468	0.8532
1476	0.9011
1484	0.9211
1492	0.9418
1500	0.9576
1508	0.9625
1516	0.9599
1524	0.9526
1532	0.9443
1540	0.9368
1548	0.9298
1556	0.9285
1564	0.9254
1572	0.9158
1580	0.9082
1588	0.9052
1596	0.9045
1604	0.9036
1612	0.9024
1620	0.9012
1628	0.8991
1636	0.8964
1644	0.8908
1652	0.8783
1660	0.8528
1668	0.8366
1676	0.8079
1684	0.755
1692	0.612
1700	0.3282
1708	0.0925
1716	0.0777
1724	0.1566
1732	0.3769
1740	0.5951
1748	0.7104
1756	0.7916
1764	0.848
1772	0.8736
1780	0.8862
1788	0.8978
1796	0.9035
1804	0.9044
1812	0.9059
1820	0.9127
1828	0.9192
1836	0.9201
1844	0.9218
1852	0.9267
1860	0.9275
1868	0.9276
1876	0.9277
1884	0.9278
1892	0.9279
1900	0.9281
1908	0.9283
1916	0.9285
1924	0.9284
1932	0.9283
1940	0.9282
1948	0.9281
1956	0.9282
1964	0.9284
1972	0.9286
1980	0.9288
1988	0.929
1996	0.9292
2004	0.9293
2012	0.9294
2020	0.9294
2028	0.9295
2036	0.9296
2044	0.9297
2052	0.9297
2060	0.9298
2068	0.9299
2076	0.9299
2084	0.93
2092	0.9302
2100	0.9306
2108	0.9311
2116	0.9314
2124	0.9318
2132	0.9322
2140	0.9323
2148	0.9323
2156	0.9324
2164	0.9324
2172	0.9325
2180	0.9323
2188	0.9322
2196	0.9321
2204	0.932
2212	0.9321
2220	0.9321
2228	0.9329
2236	0.935
2244	0.9386
2252	0.941
2260	0.9416
2268	0.9422
2276	0.9429
2284	0.9435
2292	0.9441
2300	0.9447
2308	0.9453
2316	0.9459
2324	0.9465
2332	0.947
2340	0.9477
2348	0.9482
2356	0.9488
2364	0.9485
2372	0.9478
2380	0.9444
2388	0.9294
2396	0.9207
2404	0.9129
2412	0.907
2420	0.9054
2428	0.9051
2436	0.9052
2444	0.9052
2452	0.9054
2460	0.9057
2468	0.9061
2476	0.9069
2484	0.9079
2492	0.9084
2500	0.9087
2508	0.909
2516	0.9091
2524	0.9086
2532	0.9081
2540	0.9069
2548	0.9048
2556	0.9029
2564	0.9017
2572	0.9005
2580	0.8976
2588	0.8928
2596	0.8913
2604	0.8902
2612	0.8899
2620	0.8896
2628	0.8897
2636	0.8897
2644	0.8896
2652	0.8893
2660	0.889
2668	0.8882
2676	0.8873
2684	0.8863
2692	0.8848
2700	0.8832
2708	0.8815
2716	0.8798
2724	0.8783
2732	0.877
2740	0.8752
2748	0.8714
2756	0.8654
2764	0.8584
2772	0.8474
2780	0.8314
2788	0.798
2796	0.7478
2804	0.6983
2812	0.649
2820	0.604
2828	0.5803
2836	0.5639
2844	0.5403
2852	0.4953
2860	0.4647
2868	0.4376
2876	0.3957
2884	0.3746
2892	0.361
2900	0.3516
2908	0.3496
2916	0.3497
2924	0.3506
2932	0.3934
2940	0.4494
2948	0.5051
2956	0.5605
2964	0.6155
2972	0.6703
2980	0.7248
2988	0.779
2996	0.8329
3004	0.8865
3012	0.9163
3020	0.9182
3028	0.9189
3036	0.9195
3044	0.9203
3052	0.921
3060	0.9218
3068	0.9226
3076	0.9235
3084	0.9244
3092	0.9252
3100	0.9258
3108	0.9263
3116	0.9265
3124	0.9267
3132	0.9269
3140	0.927
3148	0.9272
3156	0.9271
3164	0.927
3172	0.9268
3180	0.9267
3188	0.9266
3196	0.9264
3204	0.9259
3212	0.9253
3220	0.9248
3228	0.9241
3236	0.9235
3244	0.9227
3252	0.9216
3260	0.9206
3268	0.9195
3276	0.9184
3284	0.9162
3292	0.914
3300	0.9117
3308	0.9094
3316	0.9061
3324	0.9029
3332	0.8997
3340	0.8964
3348	0.8925
3356	0.8885
3364	0.8846
3372	0.8799
3380	0.875
3388	0.8704
3396	0.8669
3404	0.8659
3412	0.8655
3420	0.8655
3428	0.8656
3436	0.8664
3444	0.8677
3452	0.8705
3460	0.8736
3468	0.8773
3476	0.881
3484	0.8837
3492	0.8847
3500	0.8851
3508	0.8847
3516	0.8844
3524	0.8834
3532	0.8813
3540	0.8784
3548	0.8741
3556	0.8647
3564	0.8525
3572	0.8403
3580	0.8281
3588	0.8217
3596	0.8228
3604	0.8414
3612	0.8698
3620	0.8981
3628	0.9175
3636	0.9182
3644	0.9181
3652	0.9179
3660	0.9179
3668	0.9177
3676	0.9176
3684	0.9173
3692	0.9171
3700	0.9168
3708	0.9168
3716	0.917
3724	0.9171
3732	0.9173
3740	0.9174
3748	0.9175
3756	0.9177
3764	0.9178
3772	0.918
3780	0.9181
3788	0.9182
3796	0.9183
3804	0.9184
3812	0.9186
3820	0.9186
3828	0.9187
3836	0.9189
3844	0.9189
3852	0.9189
3860	0.919
3868	0.919
3876	0.919
3884	0.919
3892	0.9191
3900	0.9191
3908	0.9191
3916	0.9191
3924	0.9191
3932	0.9192
3940	0.9192
3948	0.9192
3956	0.9192
3964	0.9192
3972	0.9192
3980	0.9193
3988	0.9193
3996	0.9193
