Infrared Spectrum: Neo-isopulegol
Formula: C10 H18 O
CAS: 96612-21-4
State: SOLUTION (10% CCl4 FOR 4000-1330, 10% CS2 FOR 1330-450 CM^-^1) VS SOLVENT
Class: COBLENTZ III
Instrument: CARY 90 (GRATING)
Instrument parameters: GRATING CHANGES: 3000, 2000, 1200 CM^-^1
Sampling: TRANSMISSION
Path length: 0.01 CM, AND 0.01 CM
Resolution: 2
Origin: WESTERN REGIONAL RES. USDA
1/CM	TRANSMITTANCE
457	0.8246
466	0.7881
475	0.7839
484	0.761
493	0.7943
502	0.827
511	0.8617
520	0.8404
529	0.8113
538	0.8324
547	0.8498
556	0.8603
565	0.8695
574	0.8766
583	0.8882
592	0.8865
601	0.8447
610	0.851
619	0.8916
628	0.901
637	0.9023
646	0.9013
655	0.8859
664	0.8127
673	0.8745
682	0.8903
691	0.8925
700	0.8919
709	0.8868
718	0.8502
727	0.8937
736	0.9135
745	0.9178
754	0.9126
763	0.903
772	0.9163
781	0.9174
790	0.8995
799	0.8805
808	0.8747
817	0.865
826	0.774
835	0.8871
844	0.8465
853	0.835
862	0.8768
871	0.8559
880	0.7542
889	0.5293
898	0.4028
907	0.8564
916	0.8816
925	0.8803
934	0.6854
943	0.8199
952	0.618
961	0.7945
970	0.8659
979	0.8811
988	0.8634
997	0.8099
1006	0.7052
1015	0.6375
1024	0.5461
1033	0.7466
1042	0.7428
1051	0.8315
1060	0.7937
1069	0.7746
1078	0.8123
1087	0.7706
1096	0.8163
1105	0.8059
1114	0.7024
1123	0.6422
1132	0.8101
1141	0.8581
1150	0.8602
1159	0.8497
1168	0.8299
1177	0.7985
1186	0.8141
1195	0.8221
1204	0.7767
1213	0.5141
1222	0.5398
1231	0.4874
1240	0.5212
1249	0.6994
1258	0.7073
1267	0.7775
1276	0.8085
1285	0.7562
1294	0.7179
1303	0.6218
1312	0.723
1321	0.758
1330	0.6472
1339	0.5938
1348	0.6826
1357	0.7265
1366	0.6008
1375	0.3562
1384	0.5301
1393	0.4729
1402	0.7008
1411	0.7479
1420	0.7636
1429	0.6043
1438	0.4738
1447	0.3458
1456	0.1976
1465	0.6787
1474	0.7986
1483	0.8514
1492	0.8762
1501	0.8859
1510	0.8912
1519	0.8979
1528	0.9058
1537	0.9134
1546	0.9194
1555	0.9195
1564	0.9152
1573	0.9087
1582	0.9014
1591	0.8933
1600	0.8822
1609	0.8676
1618	0.8497
1627	0.8099
1636	0.6868
1645	0.4426
1654	0.8235
1663	0.8845
1672	0.8956
1681	0.9022
1690	0.9091
1699	0.9047
1708	0.8977
1717	0.9032
1726	0.9119
1735	0.9161
1744	0.9165
1753	0.9159
1762	0.9153
1771	0.9123
1780	0.9044
1789	0.89
1798	0.8792
1807	0.8814
1816	0.8987
1825	0.9148
1834	0.9174
1843	0.9185
1852	0.9179
1861	0.9177
1870	0.9185
1879	0.9192
1888	0.9204
1897	0.9239
1906	0.9296
1915	0.9271
1924	0.9253
1933	0.9245
1942	0.9246
1951	0.9249
1960	0.9256
1969	0.9263
1978	0.9272
1987	0.9281
1996	0.9289
2005	0.929
2014	0.9288
2023	0.9286
2032	0.9285
2041	0.9283
2050	0.9282
2059	0.9281
2068	0.928
2077	0.928
2086	0.9279
2095	0.9279
2104	0.9279
2113	0.9279
2122	0.9278
2131	0.9278
2140	0.9278
2149	0.9278
2158	0.9278
2167	0.9277
2176	0.9276
2185	0.9275
2194	0.9274
2203	0.9272
2212	0.9269
2221	0.9264
2230	0.9259
2239	0.9254
2248	0.9248
2257	0.9241
2266	0.9233
2275	0.9226
2284	0.9219
2293	0.9213
2302	0.9208
2311	0.9202
2320	0.9189
2329	0.9177
2338	0.9176
2347	0.9176
2356	0.9184
2365	0.9193
2374	0.9203
2383	0.9211
2392	0.922
2401	0.9227
2410	0.9229
2419	0.9232
2428	0.9234
2437	0.9237
2446	0.9233
2455	0.9224
2464	0.9215
2473	0.9206
2482	0.9197
2491	0.9188
2500	0.9178
2509	0.9169
2518	0.916
2527	0.9151
2536	0.9137
2545	0.9123
2554	0.9109
2563	0.9093
2572	0.9072
2581	0.9051
2590	0.903
2599	0.8999
2608	0.8966
2617	0.8933
2626	0.8898
2635	0.8862
2644	0.8827
2653	0.8792
2662	0.8758
2671	0.8758
2680	0.8763
2689	0.8775
2698	0.8789
2707	0.88
2716	0.8698
2725	0.8451
2734	0.8612
2743	0.8725
2752	0.8691
2761	0.8596
2770	0.8604
2779	0.8717
2788	0.8689
2797	0.8525
2806	0.8182
2815	0.7824
2824	0.7118
2833	0.5124
2842	0.2445
2851	0.3179
2860	0.2717
2869	0.1207
2878	0.1819
2887	0.2098
2896	0.2255
2905	0.115
2914	0.0602
2923	0.0343
2932	0.0466
2941	0.0853
2950	0.0587
2959	0.1669
2968	0.3766
2977	0.5776
2986	0.614
2995	0.7063
3004	0.8029
3013	0.8249
3022	0.8593
3031	0.8744
3040	0.8708
3049	0.8673
3058	0.872
3067	0.8341
3076	0.7721
3085	0.6632
3094	0.8022
3103	0.8873
3112	0.901
3121	0.9048
3130	0.9067
3139	0.9078
3148	0.9081
3157	0.9083
3166	0.9086
3175	0.909
3184	0.91
3193	0.9114
3202	0.9131
3211	0.9151
3220	0.9175
3229	0.9195
3238	0.9201
3247	0.9188
3256	0.9166
3265	0.9133
3274	0.9104
3283	0.9129
3292	0.9147
3301	0.9126
3310	0.9105
3319	0.9077
3328	0.904
3337	0.9002
3346	0.8964
3355	0.8924
3364	0.8881
3373	0.8838
3382	0.8784
3391	0.8718
3400	0.865
3409	0.8565
3418	0.8481
3427	0.8387
3436	0.8289
3445	0.8175
3454	0.8047
3463	0.793
3472	0.7833
3481	0.7757
3490	0.7737
3499	0.776
3508	0.7786
3517	0.7795
3526	0.7776
3535	0.7702
3544	0.7248
3553	0.6626
3562	0.6005
3571	0.5503
3580	0.5763
3589	0.7088
3598	0.781
3607	0.8285
3616	0.8304
3625	0.8306
3634	0.8512
3643	0.8925
3652	0.8982
3661	0.8984
3670	0.8949
3679	0.8897
3688	0.8895
3697	0.8944
3706	0.9007
3715	0.904
3724	0.9041
3733	0.9035
3742	0.9031
3751	0.9025
3760	0.9021
3769	0.9016
3778	0.9009
3787	0.9002
3796	0.8995
3805	0.8989
3814	0.8986
3823	0.8983
3832	0.898
3841	0.8974
3850	0.8967
3859	0.8959
3868	0.8952
3877	0.8944
3886	0.8937
3895	0.893
3904	0.8924
3913	0.8919
3922	0.8915
3931	0.8916
3940	0.8922
3949	0.8943
3958	0.898
3967	0.9038
3976	0.9099
3985	0.9144
3994	0.9186
