Infrared Spectrum: 2,5-BIS (N-BENZYL-N-METHYL-AMINOMETHYL) HYDROQUINONE
Formula: C24 H28 N2 O2
CAS: 96668-33-6
State: SOLID (KBr PRESSING)
Melting point: 178-180 C
Class: COBLENTZ
Instrument: Not specified, most likely a prism, grating, or hybrid spectrometer.
Sampling: TRANSMISSION
Resolution: 4
Origin: EASTMAN KODAK COMPANY, RESEARCH LABORATORIES, ROCHESTER, N.Y.
MICROMETERS	TRANSMITTANCE
2.193	0.762
2.23292	0.763
2.27285	0.765
2.31277	0.768
2.3527	0.763
2.39262	0.772
2.43255	0.77
2.47247	0.768
2.5124	0.78
2.55232	0.78
2.59225	0.775
2.63217	0.778
2.6721	0.785
2.71202	0.788
2.75195	0.78
2.79187	0.732
2.8318	0.703
2.87172	0.668
2.91165	0.649
2.95157	0.649
2.9915	0.673
3.03142	0.68
3.07135	0.685
3.11127	0.652
3.1512	0.627
3.19112	0.618
3.23105	0.578
3.27097	0.527
3.3109	0.488
3.35082	0.498
3.39075	0.46
3.43067	0.5
3.4706	0.48
3.51052	0.424
3.55045	0.326
3.59037	0.395
3.6303	0.449
3.67022	0.5
3.71015	0.537
3.75007	0.565
3.79	0.59
3.82992	0.634
3.86984	0.668
3.90977	0.677
3.94969	0.701
3.98962	0.716
4.02954	0.736
4.06947	0.74
4.10939	0.772
4.14932	0.773
4.18924	0.777
4.22917	0.778
4.26909	0.778
4.30902	0.788
4.34894	0.808
4.38887	0.8
4.42879	0.8
4.46872	0.808
4.50864	0.831
4.54857	0.819
4.58849	0.822
4.62842	0.816
4.66834	0.826
4.70827	0.818
4.74819	0.829
4.78812	0.832
4.82804	0.831
4.86797	0.822
4.90789	0.829
4.94782	0.831
4.98774	0.831
5.02767	0.829
5.06759	0.834
5.10752	0.839
5.14744	0.818
5.18737	0.831
5.22729	0.84
5.26722	0.844
5.30714	0.832
5.34707	0.834
5.38699	0.832
5.42692	0.842
5.46684	0.847
5.50676	0.832
5.54669	0.832
5.58661	0.84
5.62654	0.847
5.66646	0.84
5.70639	0.834
5.74631	0.824
5.78624	0.813
5.82616	0.808
5.86609	0.821
5.90601	0.836
5.94594	0.84
5.98586	0.839
6.02579	0.819
6.06571	0.809
6.10564	0.798
6.14556	0.79
6.18549	0.783
6.22541	0.788
6.26534	0.709
6.30526	0.801
6.34519	0.801
6.38511	0.811
6.42504	0.803
6.46496	0.811
6.50489	0.804
6.54481	0.721
6.58474	0.677
6.62466	0.55
6.66459	0.48
6.70451	0.278
6.74444	0.321
6.78436	0.391
6.82429	0.531
6.86421	0.409
6.90414	0.208
6.94406	0.48
6.98399	0.56
7.02391	0.683
7.06384	0.695
7.10376	0.473
7.14368	0.609
7.18361	0.596
7.22353	0.521
7.26346	0.311
7.30338	0.201
7.34331	0.529
7.38323	0.663
7.42316	0.729
7.46308	0.765
7.50301	0.595
7.54293	0.683
7.58286	0.718
7.62278	0.696
7.66271	0.75
7.70263	0.69
7.74256	0.5
7.78248	0.434
7.82241	0.36
7.86233	0.459
7.90226	0.65
7.94218	0.7
7.98211	0.747
8.02203	0.76
8.06196	0.7
8.10188	0.724
8.14181	0.804
8.18173	0.821
8.22166	0.816
8.26158	0.78
8.30151	0.668
8.34143	0.488
8.38136	0.545
8.42128	0.7
8.46121	0.66
8.50113	0.519
8.54106	0.47
8.58098	0.47
8.62091	0.59
8.66083	0.568
8.70076	0.65
8.74068	0.46
8.7806	0.59
8.82053	0.721
8.86045	0.763
8.90038	0.749
8.9403	0.8
8.98023	0.829
9.02015	0.831
9.06008	0.832
9.1	0.85
9.13993	0.857
9.17985	0.86
9.21978	0.836
9.2597	0.754
9.29963	0.78
9.33955	0.831
9.37948	0.85
9.4194	0.854
9.45933	0.852
9.49925	0.852
9.53918	0.852
9.5791	0.85
9.61903	0.836
9.65895	0.822
9.69888	0.742
9.7388	0.724
9.77873	0.57
9.81865	0.27
9.85858	0.221
9.8985	0.48
9.93843	0.65
9.97835	0.691
10.0183	0.777
10.0582	0.752
10.0981	0.532
10.1381	0.55
10.178	0.693
10.2179	0.76
10.2578	0.775
10.2978	0.772
10.3377	0.552
10.3776	0.347
10.4175	0.636
10.4574	0.752
10.4974	0.8
10.5373	0.831
10.5772	0.84
10.6171	0.844
10.6571	0.844
10.697	0.85
10.7369	0.855
10.7768	0.86
10.8168	0.857
10.8567	0.836
10.8966	0.832
10.9365	0.818
10.9765	0.665
11.0164	0.627
11.0563	0.791
11.0962	0.836
11.1362	0.852
11.1761	0.85
11.216	0.829
11.2559	0.781
11.2959	0.613
11.3358	0.265
11.3757	0.5
11.4156	0.726
11.4556	0.772
11.4955	0.79
11.5354	0.783
11.5753	0.662
11.6153	0.6
11.6552	0.654
11.6951	0.67
11.735	0.691
11.775	0.659
11.8149	0.613
11.8548	0.588
11.8947	0.639
11.9347	0.709
11.9746	0.74
12.0145	0.754
12.0544	0.75
12.0944	0.745
12.1343	0.729
12.1742	0.701
12.2141	0.622
12.2541	0.568
12.294	0.54
12.3339	0.513
12.3738	0.48
12.4138	0.511
12.4537	0.568
12.4936	0.632
12.5335	0.675
12.5735	0.698
12.6134	0.719
12.6533	0.74
12.6932	0.742
12.7332	0.759
12.7731	0.772
12.813	0.77
12.8529	0.747
12.8929	0.713
12.9328	0.66
12.9727	0.56
13.0126	0.4
13.0526	0.319
13.0925	0.303
13.1324	0.349
13.1723	0.411
13.2123	0.5
13.2522	0.54
13.2921	0.583
13.332	0.596
13.372	0.58
13.4119	0.552
13.4518	0.488
13.4917	0.36
13.5317	0.27
13.5716	0.35
13.6115	0.554
13.6514	0.7
13.6914	0.76
13.7313	0.791
13.7712	0.798
13.8111	0.809
13.8511	0.814
13.891	0.808
13.9309	0.803
13.9708	0.806
14.0108	0.796
14.0507	0.785
14.0906	0.77
14.1305	0.731
14.1705	0.672
14.2104	0.586
14.2503	0.45
14.2902	0.26
14.3302	0.208
14.3701	0.345
14.41	0.532
14.4499	0.673
14.4899	0.742
14.5298	0.781
14.5697	0.795
14.6096	0.811
14.6496	0.816
14.6895	0.816
14.7294	0.827
14.7693	0.821
14.8093	0.818
14.8492	0.816
14.8891	0.813
14.929	0.811
14.969	0.811
15.0089	0.818
15.0488	0.831
15.0887	0.829
15.1287	0.832
15.1686	0.827
15.2085	0.837
15.2484	0.834
15.2884	0.822
15.3283	0.803
15.3682	0.808
15.4081	0.793
15.4481	0.793
15.488	0.806
15.5279	0.808
15.5678	0.804
15.6078	0.808
15.6477	0.803
15.6876	0.793
15.7275	0.793
15.7675	0.793
15.8074	0.79
