Infrared Spectrum: p-Bromophenyl octyl ether
Formula: C 14 H 21 Br O
CAS: 96693-05-9
State: gas
Origin: EPA-IR VAPOR PHASE LIBRARY
1/CM	ABSORBANCE
549.8	0.0008512
559.445	0.0003886
569.09	0.0003985
578.734	0.0006434
588.379	0.001789
598.024	0.003469
607.669	0.003369
617.313	0.003419
626.958	0.004419
636.603	0.006919
646.248	0.004389
655.893	0.001319
665.537	0.0008036
675.182	0.0006018
684.827	0.0008225
694.472	0.0010387
704.116	0.0011301
713.761	0.001559
723.406	0.001619
733.051	0.001499
742.695	0.001369
752.34	0.0011493
761.985	0.001289
771.63	0.001339
781.275	0.001769
790.919	0.002899
800.564	0.004409
810.209	0.007319
819.854	0.015579
829.498	0.011579
839.143	0.005469
848.788	0.003019
858.433	0.001589
868.078	0.001239
877.722	0.0010666
887.367	0.0011609
897.012	0.001309
906.657	0.001649
916.301	0.001529
925.946	0.001709
935.591	0.001939
945.236	0.002009
954.88	0.002879
964.525	0.004179
974.17	0.004939
983.815	0.006519
993.46	0.008779
1003.1	0.017079
1012.75	0.011559
1022.39	0.011549
1032.04	0.013519
1041.68	0.012669
1051.33	0.010639
1060.97	0.009369
1070.62	0.016559
1080.26	0.009409
1089.91	0.004489
1099.55	0.003979
1109.2	0.003239
1118.84	0.002899
1128.49	0.002729
1138.13	0.002129
1147.78	0.002239
1157.42	0.004329
1167.07	0.019559
1176.71	0.008179
1186.36	0.005959
1196	0.008559
1205.64	0.013989
1215.29	0.024299
1224.93	0.048169
1234.58	0.073289
1244.22	0.061849
1253.87	0.029229
1263.51	0.023559
1273.16	0.027349
1282.8	0.023379
1292.45	0.014729
1302.09	0.011139
1311.74	0.007589
1321.38	0.005269
1331.03	0.004149
1340.67	0.003629
1350.32	0.003689
1359.96	0.003569
1369.61	0.003779
1379.25	0.006019
1388.9	0.007209
1398.54	0.004099
1408.18	0.003069
1417.83	0.003289
1427.47	0.004219
1437.12	0.005519
1446.76	0.007429
1456.41	0.011049
1466.05	0.020779
1475.7	0.039319
1485.34	0.070509
1494.99	0.048639
1504.63	0.010919
1514.28	0.005629
1523.92	0.003629
1533.57	0.002389
1543.21	0.002169
1552.86	0.002499
1562.5	0.003719
1572.15	0.007809
1581.79	0.012609
1591.44	0.012939
1601.08	0.006689
1610.73	0.002939
1620.37	0.001969
1630.01	0.001489
1639.66	0.001289
1649.3	0.0009921
1658.95	0.0008362
1668.59	0.0007732
1678.24	0.0005259
1687.88	0.0006562
1697.53	0.0005925
1707.17	0.000613
1716.82	0.0006965
1726.46	0.0008057
1736.11	0.000903
1745.75	0.0008716
1755.4	0.0006524
1765.04	0.0004768
1774.69	0.0005233
1784.33	0.0004245
1793.98	0.0005096
1803.62	0.000532
1813.27	0.000578
1822.91	0.0005799
1832.55	0.0006067
1842.2	0.0008385
1851.84	0.0009034
1861.49	0.0011956
1871.13	0.001289
1880.78	0.0009593
1890.42	0.0008569
1900.07	0.0006076
1909.71	0.0005253
1919.36	0.0004625
1929	0.0004948
1938.65	0.0003942
1948.29	0.0005142
1957.94	0.0004395
1967.58	0.0005084
1977.23	0.0005683
1986.87	0.0006186
1996.52	0.0007393
2006.16	0.0007438
2015.81	0.0008796
2025.45	0.0008517
2035.1	0.0009438
2044.74	0.000911
2054.38	0.0008846
2064.03	0.0008531
2073.67	0.0008392
2083.32	0.0006857
2092.96	0.0005796
2102.61	0.0004872
2112.25	0.0004463
2121.9	0.0003483
2131.54	0.0003661
2141.19	0.0002994
2150.83	0.00027272
2160.48	0.0003316
2170.12	0.00028741
2179.77	0.000208076
2189.41	0.00027858
2199.06	0.0003672
2208.7	0.00027266
2218.35	0.0003174
2227.99	0.00027802
2237.64	0.0003328
2247.28	0.0003892
2256.92	0.0003833
2266.57	0.0003767
2276.21	0.0005127
2285.86	0.0004956
2295.5	0.0004834
2305.15	0.0004675
2314.79	0.0003711
2324.44	0.0004398
2334.08	0.0004462
2343.73	0.000389
2353.37	0.0004678
2363.02	0.0004615
2372.66	0.0004692
2382.31	0.0005491
2391.95	0.0005906
2401.6	0.0006313
2411.24	0.000617
2420.89	0.0005939
2430.53	0.0004924
2440.18	0.0005976
2449.82	0.0007107
2459.47	0.0005576
2469.11	0.0006598
2478.75	0.0006963
2488.4	0.0006817
2498.04	0.0007264
2507.69	0.0007674
2517.33	0.0007665
2526.98	0.0007817
2536.62	0.0006332
2546.27	0.000563
2555.91	0.0005667
2565.56	0.0006596
2575.2	0.0006835
2584.85	0.0005242
2594.49	0.0005954
2604.14	0.000619
2613.78	0.0005429
2623.43	0.0004866
2633.07	0.000759
2642.72	0.0006736
2652.36	0.0007268
2662.01	0.0008069
2671.65	0.0009978
2681.29	0.0009576
2690.94	0.0008531
2700.58	0.000955
2710.23	0.0009528
2719.87	0.001043
2729.52	0.0011359
2739.16	0.001279
2748.81	0.001499
2758.45	0.001429
2768.1	0.001409
2777.74	0.001469
2787.39	0.001899
2797.03	0.002119
2806.68	0.002619
2816.32	0.003249
2825.97	0.003979
2835.61	0.005529
2845.26	0.009079
2854.9	0.017279
2864.55	0.026149
2874.19	0.025029
2883.84	0.022909
2893.48	0.020519
2903.12	0.023079
2912.77	0.032869
2922.41	0.047909
2932.06	0.065719
2941.7	0.062719
2951.35	0.046939
2960.99	0.038389
2970.64	0.032689
2980.28	0.016739
2989.93	0.008799
2999.57	0.005549
3009.22	0.003859
3018.86	0.003209
3028.51	0.003109
3038.15	0.003439
3047.8	0.002839
3057.44	0.002409
3067.09	0.002439
3076.73	0.002879
3086.38	0.002999
3096.02	0.003249
3105.67	0.002149
3115.31	0.0011209
3124.95	0.0008171
3134.6	0.0005897
3144.24	0.0007023
3153.89	0.0006781
3163.53	0.0004289
3173.18	0.0004935
3182.82	0.0006388
3192.47	0.0004043
3202.11	0.0003295
3211.76	0.00028234
3221.4	0.00025771
3231.05	0.0001788
3240.69	0.000205262
3250.34	0.00025389
3259.98	0.0003972
3269.63	0.0001704
3279.27	0.0001558
3288.92	0.00023098
3298.56	0.0001395
3308.21	0.0003217
3317.85	0.0003124
3327.49	0.00029475
3337.14	0.00018936
3346.78	0.00021381
3356.43	0.00023393
3366.07	0.0003241
3375.72	0.0001165
3385.36	0.00021622
3395.01	0.0001853
3404.65	0.0003457
3414.3	0.0001083
3423.94	0.00026872
3433.59	0.00025466
3443.23	0.000200615
3452.88	0.0003286
3462.52	0.00025649
3472.17	0.0002256
3481.81	0.0001424
3491.46	0.00028042
3501.1	0.0001844
3510.75	0.0001697
3520.39	8.1e-05
3530.04	0.00021948
3539.68	0.0001386
3549.32	0.0001114
3558.97	0.00022868
3568.61	0.0001164
3578.26	0.00027822
3587.9	0.00029471
3597.55	0.0002795
3607.19	0.00019288
3616.84	0.00028036
3626.48	0.0003276
3636.13	0.00026693
3645.77	0.0002968
3655.42	0.0003558
3665.06	0.0003767
3674.71	0.0004947
3684.35	0.0004325
3694	0.0003865
3703.64	0.00026721
3713.29	0.0003486
3722.93	0.0003926
3732.58	0.0004291
3742.22	0.00029148
3751.86	0.0004714
3761.51	0.0003746
3771.15	0.0003283
3780.8	0.0004338
3790.44	0.0004181
3800.09	0.0006921
3809.73	0.00025021
3819.38	0.000419
3829.02	0.0004467
3838.67	0.00022302
3848.31	0.0003131
3857.96	0.0004983
3867.6	0.0004406
3877.25	0.0004129
3886.89	0.0004885
3896.54	0.0003666
3906.18	0.0005291
3915.83	0.0004673
3925.47	0.0004782
3935.12	0.0004776
3944.76	0.0003602
3954.41	0.0004132
3964.05	0.000461
3973.69	0.0004549
3983.34	0.0003378
3992.98	0.0003217
