Infrared Spectrum: 5-ANDROSTENE-3Beta-OL,17-ONE-16-YLIDENACETIC ACID, 3-ACETATE
Formula: C23 H30 O5
CAS: 96708-99-5
State: SOLID (KBr PELLET)
Class: COBLENTZ
Instrument: PERKIN-ELMER
Sampling: TRANSMISSION
Resolution: 4
Origin: ABBOTT LABORATORIES - WASHBURN
MICROMETERS	TRANSMITTANCE
2.038	0.83
2.07758	0.833
2.11715	0.834
2.15673	0.834
2.1963	0.836
2.23588	0.836
2.27546	0.836
2.31503	0.833
2.35461	0.831
2.39418	0.831
2.43376	0.834
2.47333	0.834
2.51291	0.833
2.55249	0.836
2.59206	0.8389
2.63164	0.846
2.67121	0.8479
2.71079	0.8489
2.75037	0.846
2.78994	0.8217
2.82952	0.7657
2.86909	0.7277
2.90867	0.6787
2.94824	0.6633
2.98782	0.6453
3.0274	0.6125
3.06697	0.5606
3.10655	0.4991
3.14612	0.4311
3.1857	0.368
3.22528	0.3171
3.26485	0.2706
3.30443	0.2541
3.344	0.2433
3.38358	0.1519
3.42316	0.1881
3.46273	0.2401
3.50231	0.3255
3.54188	0.405
3.58146	0.599
3.62103	0.6651
3.66061	0.702
3.70019	0.716
3.73976	0.727
3.77934	0.726
3.81891	0.707
3.85849	0.6979
3.89807	0.7368
3.93764	0.755
3.97722	0.773
4.01679	0.7919
4.05637	0.79
4.09594	0.79
4.13552	0.793
4.1751	0.8077
4.21467	0.816
4.25425	0.816
4.29382	0.82
4.3334	0.823
4.37298	0.825
4.41255	0.833
4.45213	0.8328
4.4917	0.833
4.53128	0.83
4.57085	0.83
4.61043	0.831
4.65001	0.831
4.68958	0.831
4.72916	0.83
4.76873	0.825
4.80831	0.8282
4.84789	0.8212
4.88746	0.823
4.92704	0.821
4.96661	0.8162
5.00619	0.816
5.04577	0.818
5.08534	0.8085
5.12492	0.806
5.16449	0.8056
5.20407	0.808
5.24364	0.8073
5.28322	0.805
5.3228	0.803
5.36237	0.7998
5.40195	0.792
5.44152	0.7785
5.4811	0.7648
5.52068	0.7393
5.56025	0.7104
5.59983	0.6579
5.6394	0.6235
5.67898	0.5301
5.71855	0.3276
5.75813	0.103
5.79771	0.0071
5.83728	0.0034
5.87686	0.1153
5.91643	0.1363
5.95601	0.1078
5.99559	0.1407
6.03516	0.2592
6.07474	0.3514
6.11431	0.4483
6.15389	0.5266
6.19347	0.5906
6.23304	0.6456
6.27262	0.6733
6.31219	0.699
6.35177	0.7154
6.39134	0.7236
6.43092	0.721
6.4705	0.729
6.51007	0.735
6.54965	0.7394
6.58922	0.7457
6.6288	0.7455
6.66838	0.745
6.70795	0.7398
6.74753	0.7311
6.7871	0.6818
6.82668	0.4683
6.86625	0.452
6.90583	0.401
6.94541	0.344
6.98498	0.4082
7.02456	0.4097
7.06413	0.5109
7.10371	0.5237
7.14329	0.4201
7.18286	0.237
7.22244	0.234
7.26201	0.2544
7.30159	0.2545
7.34117	0.3172
7.38074	0.4845
7.42032	0.5335
7.45989	0.5704
7.49947	0.5549
7.53904	0.5385
7.57862	0.4769
7.6182	0.4136
7.65777	0.354
7.69735	0.3267
7.73692	0.2016
7.7765	0.0476
7.81608	0.0004
7.85565	0.0147
7.89523	0.1424
7.9348	0.208
7.97438	0.2246
8.01395	0.1627
8.05353	0.1114
8.09311	0.0919
8.13268	0.1422
8.17226	0.1022
8.21183	0.0865
8.25141	0.1653
8.29099	0.1534
8.33056	0.1655
8.37014	0.2739
8.40971	0.3141
8.44929	0.3495
8.48886	0.4145
8.52844	0.4293
8.56802	0.4779
8.60759	0.3992
8.64717	0.4369
8.68674	0.5204
8.72632	0.5682
8.7659	0.5795
8.80547	0.5477
8.84505	0.4829
8.88462	0.5132
8.9242	0.562
8.96378	0.4683
9.00335	0.5732
9.04293	0.6402
9.0825	0.655
9.12208	0.6067
9.16165	0.5127
9.20123	0.4329
9.24081	0.2962
9.28038	0.4816
9.31996	0.5501
9.35953	0.4821
9.39911	0.3759
9.43869	0.3761
9.47826	0.353
9.51784	0.351
9.55741	0.34
9.59699	0.2825
9.63656	0.1494
9.67614	0.1216
9.71572	0.2019
9.75529	0.2561
9.79487	0.2758
9.83444	0.3884
9.87402	0.4217
9.9136	0.3187
9.95317	0.2005
9.99275	0.302
10.0323	0.4355
10.0719	0.4118
10.1115	0.339
10.1511	0.3661
10.1906	0.4286
10.2302	0.3926
10.2698	0.4084
10.3094	0.5147
10.3489	0.5946
10.3885	0.6423
10.4281	0.648
10.4677	0.6523
10.5072	0.6622
10.5468	0.665
10.5864	0.6618
10.626	0.5708
10.6655	0.5552
10.7051	0.6427
10.7447	0.676
10.7843	0.6613
10.8238	0.6087
10.8634	0.5575
10.903	0.5524
10.9426	0.5432
10.9821	0.5184
11.0217	0.4138
11.0613	0.374
11.1009	0.31
11.1404	0.3928
11.18	0.464
11.2196	0.5144
11.2592	0.5419
11.2988	0.546
11.3383	0.5087
11.3779	0.5124
11.4175	0.5377
11.4571	0.544
11.4966	0.539
11.5362	0.537
11.5758	0.5338
11.6154	0.5312
11.6549	0.5391
11.6945	0.549
11.7341	0.557
11.7737	0.5345
11.8132	0.5197
11.8528	0.5509
11.8924	0.5803
11.932	0.584
11.9715	0.5764
12.0111	0.5451
12.0507	0.523
12.0903	0.529
12.1298	0.5851
12.1694	0.6358
12.209	0.6597
12.2486	0.66
12.2881	0.6261
12.3277	0.5213
12.3673	0.5649
12.4069	0.6446
12.4465	0.6636
12.486	0.663
12.5256	0.6391
12.5652	0.5869
12.6048	0.5937
12.6443	0.6672
12.6839	0.687
12.7235	0.7003
12.7631	0.702
12.8026	0.6985
12.8422	0.6865
12.8818	0.6494
12.9214	0.6566
12.9609	0.6966
13.0005	0.731
13.0401	0.7497
13.0797	0.7586
13.1192	0.7635
13.1588	0.7607
13.1984	0.7611
13.238	0.765
13.2775	0.77
13.3171	0.7723
13.3567	0.7753
13.3963	0.787
13.4358	0.787
13.4754	0.788
13.515	0.79
13.5546	0.79
13.5942	0.7928
13.6337	0.798
13.6733	0.797
13.7129	0.7975
13.7525	0.7874
13.792	0.783
13.8316	0.7556
13.8712	0.7267
13.9108	0.701
13.9503	0.7038
13.9899	0.704
14.0295	0.6818
14.0691	0.6816
14.1086	0.7286
14.1482	0.7579
14.1878	0.773
14.2274	0.778
14.2669	0.79
14.3065	0.793
14.3461	0.793
14.3857	0.7882
14.4252	0.7676
14.4648	0.7556
14.5044	0.747
14.544	0.7586
14.5835	0.7822
14.6231	0.795
14.6627	0.797
14.7023	0.7928
14.7419	0.7769
14.7814	0.773
14.821	0.755
14.8606	0.742
14.9002	0.74
14.9397	0.7465
14.9793	0.7646
15.0189	0.7658
15.0585	0.754
15.098	0.7711
15.1376	0.782
15.1772	0.7834
15.2168	0.785
15.2563	0.787
15.2959	0.787
15.3355	0.788
15.3751	0.788
15.4146	0.7876
15.4542	0.788
