Infrared Spectrum: 16Beta-HYDROXYMETHYL-5Alpha,17Alpha-PREGNAN-3,20-DIONE
Formula: C22 H34 O3
CAS: 96707-44-7
State: SOLUTION (0.2M IN CHCl3)
Class: COBLENTZ
Instrument: PERKIN-ELMER
Sampling: TRANSMISSION
Path length: 0.010 CM CELL
Resolution: 4
Origin: ABBOTT LABORATORIES - WASHBURN
MICROMETERS	TRANSMITTANCE
2.507	0.903
2.54033	0.904
2.57367	0.904
2.607	0.908
2.64034	0.906
2.67367	0.906
2.70701	0.906
2.74034	0.909
2.77368	0.9039
2.80701	0.8595
2.84035	0.8292
2.87368	0.8315
2.90702	0.78
2.94035	0.77
2.97369	0.7741
3.00702	0.7946
3.04036	0.8371
3.07369	0.8642
3.10703	0.876
3.14036	0.887
3.1737	0.892
3.20703	0.8938
3.24037	0.892
3.2737	0.892
3.30704	0.877
3.34037	0.8341
3.37371	0.6198
3.40704	0.4608
3.44038	0.2864
3.47371	0.3115
3.50705	0.479
3.54038	0.459
3.57372	0.6933
3.60705	0.8014
3.64039	0.8566
3.67372	0.8772
3.70706	0.884
3.74039	0.884
3.77373	0.8872
3.80706	0.891
3.8404	0.891
3.87373	0.892
3.90707	0.894
3.9404	0.896
3.97374	0.896
4.00707	0.896
4.04041	0.894
4.07374	0.8909
4.10708	0.887
4.14041	0.889
4.17375	0.8992
4.20708	0.9136
4.24042	0.9259
4.27375	0.916
4.30709	0.914
4.34042	0.913
4.37376	0.911
4.40709	0.911
4.44043	0.911
4.47376	0.911
4.5071	0.913
4.54043	0.911
4.57377	0.911
4.6071	0.9092
4.64044	0.911
4.67377	0.909
4.70711	0.911
4.74044	0.909
4.77378	0.909
4.80711	0.909
4.84045	0.909
4.87378	0.909
4.90712	0.909
4.94045	0.904
4.97379	0.906
5.00712	0.9079
5.04046	0.904
5.07379	0.906
5.10713	0.906
5.14046	0.906
5.1738	0.906
5.20713	0.906
5.24046	0.906
5.2738	0.906
5.30713	0.906
5.34047	0.9067
5.3738	0.906
5.40714	0.906
5.44047	0.903
5.47381	0.9022
5.50714	0.8983
5.54048	0.897
5.57381	0.8953
5.60715	0.8917
5.64048	0.8884
5.67382	0.8805
5.70715	0.8679
5.74049	0.8488
5.77382	0.7922
5.80716	0.6658
5.84049	0.3573
5.87383	0.1152
5.90716	0.1757
5.9405	0.4284
5.97383	0.6729
6.00717	0.7572
6.0405	0.7798
6.07384	0.8069
6.10717	0.8325
6.14051	0.8403
6.17384	0.846
6.20718	0.849
6.24051	0.859
6.27385	0.868
6.30718	0.869
6.34052	0.8715
6.37385	0.871
6.40719	0.8758
6.44052	0.877
6.47386	0.8812
6.50719	0.887
6.54053	0.887
6.57386	0.8893
6.6072	0.8908
6.64053	0.887
6.67387	0.876
6.7072	0.8739
6.74054	0.866
6.77387	0.8426
6.80721	0.7879
6.84054	0.732
6.87388	0.735
6.90721	0.5853
6.94055	0.5624
6.97388	0.6663
7.00722	0.7036
7.04055	0.6837
7.07389	0.6512
7.10722	0.65
7.14056	0.6908
7.17389	0.7344
7.20723	0.7259
7.24056	0.5982
7.2739	0.5555
7.30723	0.6142
7.34057	0.557
7.3739	0.525
7.40724	0.521
7.44057	0.5692
7.47391	0.682
7.50724	0.6901
7.54058	0.7239
7.57391	0.745
7.60725	0.7372
7.64058	0.7293
7.67392	0.7387
7.70725	0.75
7.74059	0.7567
7.77392	0.7713
7.80726	0.7694
7.84059	0.7401
7.87393	0.6959
7.90726	0.7318
7.94059	0.751
7.97393	0.746
8.00726	0.6954
8.0406	0.668
8.07393	0.65
8.10727	0.631
8.1406	0.5995
8.17394	0.598
8.20727	0.6054
8.24061	0.6175
8.27394	0.62
8.30728	0.6269
8.34061	0.6443
8.37395	0.7185
8.40728	0.7485
8.44062	0.7202
8.47395	0.6408
8.50729	0.6167
8.54062	0.6374
8.57396	0.6122
8.60729	0.547
8.64063	0.5547
8.67396	0.6118
8.7073	0.6475
8.74063	0.6734
8.77397	0.7293
8.8073	0.7544
8.84064	0.7461
8.87397	0.7089
8.90731	0.6576
8.94064	0.6594
8.97398	0.6947
9.00731	0.7324
9.04065	0.7506
9.07398	0.7741
9.10732	0.7804
9.14065	0.784
9.17399	0.7535
9.20732	0.729
9.24066	0.6936
9.27399	0.6788
9.30733	0.6778
9.34066	0.696
9.374	0.714
9.40733	0.7056
9.44067	0.688
9.474	0.7009
9.50734	0.7044
9.54067	0.6746
9.57401	0.672
9.60734	0.6929
9.64068	0.7186
9.67401	0.752
9.70735	0.7557
9.74068	0.759
9.77402	0.7514
9.80735	0.7472
9.84069	0.706
9.87402	0.6617
9.90736	0.6347
9.94069	0.6149
9.97403	0.585
10.0074	0.585
10.0407	0.6091
10.074	0.6666
10.1074	0.7083
10.1407	0.731
10.174	0.7475
10.2074	0.7457
10.2407	0.7502
10.274	0.7582
10.3074	0.7746
10.3407	0.7829
10.374	0.777
10.4074	0.7821
10.4407	0.798
10.4741	0.802
10.5074	0.7982
10.5407	0.792
10.5741	0.794
10.6074	0.7994
10.6407	0.8074
10.6741	0.8165
10.7074	0.8277
10.7407	0.8425
10.7741	0.8642
10.8074	0.8661
10.8407	0.867
10.8741	0.867
10.9074	0.8662
10.9407	0.8512
10.9741	0.8412
11.0074	0.8418
11.0407	0.8455
11.0741	0.8535
11.1074	0.854
11.1407	0.864
11.1741	0.866
11.2074	0.8665
11.2408	0.867
11.2741	0.866
11.3074	0.866
11.3408	0.866
11.3741	0.864
11.4074	0.864
11.4408	0.8676
11.4741	0.872
11.5074	0.872
11.5408	0.871
11.5741	0.872
11.6074	0.867
11.6408	0.864
11.6741	0.866
11.7074	0.864
11.7408	0.871
11.7741	0.8806
11.8074	0.8867
11.8408	0.889
11.8741	0.889
11.9075	0.889
11.9408	0.886
11.9741	0.877
12.0075	0.876
12.0408	0.8801
12.0741	0.8898
12.1075	0.891
12.1408	0.891
12.1741	0.891
12.2075	0.892
12.2408	0.894
12.2741	0.896
12.3075	0.8974
12.3408	0.9044
12.3741	0.916
12.4075	0.919
12.4408	0.9378
12.4741	0.943
12.5075	0.9487
12.5408	0.964
12.5742	0.9757
12.6075	0.981
12.6408	0.986
12.6742	0.984
12.7075	0.986
12.7408	0.979
12.7742	0.9769
12.8075	0.973
12.8408	0.967
12.8742	0.962
12.9075	0.959
12.9408	0.958
12.9742	0.953
13.0075	0.9545
13.0408	0.9538
13.0742	0.946
13.1075	0.944
13.1408	0.9377
13.1742	0.923
13.2075	0.9128
13.2409	0.9078
13.2742	0.9041
13.3075	0.901
13.3409	0.8961
13.3742	0.8877
13.4075	0.8862
13.4409	0.8735
13.4742	0.8674
13.5075	0.862
13.5409	0.8548
13.5742	0.854
13.6075	0.854
13.6409	0.8514
13.6742	0.8441
13.7075	0.8401
13.7409	0.8266
13.7742	0.821
13.8075	0.819
13.8409	0.816
13.8742	0.8177
13.9075	0.826
13.9409	0.8293
13.9742	0.829
14.0076	0.8322
14.0409	0.8491
14.0742	0.866
14.1076	0.881
14.1409	0.886
14.1742	0.886
14.2076	0.8861
14.2409	0.887
14.2742	0.889
14.3076	0.891
14.3409	0.889
14.3742	0.889
14.4076	0.889
14.4409	0.892
14.4742	0.894
14.5076	0.894
14.5409	0.8884
14.5742	0.883
14.6076	0.8814
14.6409	0.8804
14.6743	0.8727
14.7076	0.869
14.7409	0.8817
14.7743	0.8916
14.8076	0.897
14.8409	0.901
14.8743	0.9042
14.9076	0.906
14.9409	0.903
