Infrared Spectrum: 4,4'-DITHIOBIS(3-BENZOYLAMINO-1-BUTANOL BENZOATE)
Formula: C36 H36 N2 O6 S2
CAS: 96772-45-1
State: SOLID(MINERAL OIL MULL)
Melting point: 178.5-180 C
Class: COBLENTZ
Instrument: Not specified, most likely a prism, grating, or hybrid spectrometer.
Sampling: TRANSMISSION
Resolution: 4
Origin: ARTHUR D. LITTLE, INC.
1/CM	TRANSMITTANCE
649.785	0.459
658.154	0.448
666.523	0.442
674.892	0.452
683.261	0.459
691.63	0.395
700	0.406
708.369	0.268
716.738	0.415
725.107	0.488
733.476	0.545
741.845	0.61
750.214	0.633
758.583	0.639
766.952	0.64
775.321	0.639
783.69	0.64
792.06	0.637
800.429	0.607
808.798	0.63
817.167	0.637
825.536	0.629
833.905	0.64
842.274	0.644
850.643	0.637
859.012	0.63
867.381	0.593
875.75	0.643
884.119	0.661
892.489	0.664
900.858	0.662
909.227	0.66
917.596	0.654
925.965	0.636
934.334	0.622
942.703	0.637
951.072	0.64
959.441	0.639
967.81	0.623
976.179	0.616
984.549	0.644
992.918	0.651
1001.29	0.64
1009.66	0.643
1018.02	0.636
1026.39	0.589
1034.76	0.552
1043.13	0.605
1051.5	0.623
1059.87	0.618
1068.24	0.589
1076.61	0.495
1084.98	0.561
1093.35	0.572
1101.72	0.502
1110.08	0.452
1118.45	0.401
1126.82	0.385
1135.19	0.54
1143.56	0.614
1151.93	0.587
1160.3	0.589
1168.67	0.589
1177.04	0.573
1185.41	0.561
1193.78	0.647
1202.14	0.651
1210.51	0.646
1218.88	0.625
1227.25	0.589
1235.62	0.544
1243.99	0.548
1252.36	0.467
1260.73	0.406
1269.1	0.367
1277.47	0.249
1285.84	0.22
1294.2	0.332
1302.57	0.447
1310.94	0.481
1319.31	0.458
1327.68	0.49
1336.05	0.571
1344.42	0.525
1352.79	0.487
1361.16	0.545
1369.53	0.541
1377.9	0.502
1386.26	0.506
1394.63	0.571
1403	0.622
1411.37	0.628
1419.74	0.621
1428.11	0.594
1436.48	0.487
1444.85	0.515
1453.22	0.392
1461.59	0.349
1469.96	0.369
1478.32	0.525
1486.69	0.532
1495.06	0.461
1503.43	0.554
1511.8	0.474
1520.17	0.345
1528.54	0.266
1536.91	0.303
1545.28	0.451
1553.65	0.551
1562.02	0.621
1570.38	0.63
1578.75	0.587
1587.12	0.538
1595.49	0.625
1603.86	0.558
1612.23	0.559
1620.6	0.571
1628.97	0.497
1637.34	0.252
1645.71	0.22
1654.08	0.481
1662.44	0.573
1670.81	0.636
1679.18	0.65
1687.55	0.637
1695.92	0.618
1704.29	0.512
1712.66	0.32
1721.03	0.257
1729.4	0.246
1737.77	0.577
1746.14	0.679
1754.5	0.707
1762.87	0.71
1771.24	0.71
1779.61	0.71
1787.98	0.707
1796.35	0.71
1804.72	0.71
1813.09	0.706
1821.46	0.706
1829.83	0.707
1838.2	0.708
1846.56	0.71
1854.93	0.71
1863.3	0.708
1871.67	0.704
1880.04	0.701
1888.41	0.696
1896.78	0.689
1905.15	0.686
1913.52	0.686
1921.89	0.685
1930.26	0.686
1938.62	0.686
1946.99	0.688
1955.36	0.683
1963.73	0.682
1972.1	0.681
1980.47	0.681
1988.84	0.681
1997.21	0.682
2005.58	0.682
2013.95	0.682
2022.32	0.681
2030.68	0.679
2039.05	0.679
2047.42	0.678
2055.79	0.676
2064.16	0.675
2072.53	0.674
2080.9	0.672
2089.27	0.669
2097.64	0.669
2106.01	0.668
2114.38	0.668
2122.74	0.667
2131.11	0.665
2139.48	0.664
2147.85	0.662
2156.22	0.662
2164.59	0.661
2172.96	0.66
2181.33	0.66
2189.7	0.658
2198.07	0.657
2206.44	0.655
2214.8	0.654
2223.17	0.653
2231.54	0.651
2239.91	0.651
2248.28	0.65
2256.65	0.649
2265.02	0.647
2273.39	0.647
2281.76	0.647
2290.13	0.646
2298.5	0.646
2306.86	0.646
2315.23	0.646
2323.6	0.646
2331.97	0.644
2340.34	0.644
2348.71	0.643
2357.08	0.642
2365.45	0.642
2373.82	0.642
2382.19	0.642
2390.56	0.637
2398.92	0.637
2407.29	0.636
2415.66	0.635
2424.03	0.635
2432.4	0.633
2440.77	0.633
2449.14	0.63
2457.51	0.63
2465.88	0.63
2474.25	0.629
2482.62	0.625
2490.98	0.622
2499.35	0.621
2507.72	0.619
2516.09	0.618
2524.46	0.618
2532.83	0.616
2541.2	0.616
2549.57	0.615
2557.94	0.614
2566.31	0.612
2574.68	0.611
2583.04	0.61
2591.41	0.608
2599.78	0.607
2608.15	0.604
2616.52	0.603
2624.89	0.6
2633.26	0.598
2641.63	0.598
2650	0.596
2658.37	0.596
2666.74	0.594
2675.1	0.594
2683.47	0.594
2691.84	0.594
2700.21	0.591
2708.58	0.59
2716.95	0.589
2725.32	0.586
2733.69	0.589
2742.06	0.589
2750.43	0.589
2758.8	0.589
2767.16	0.587
2775.53	0.584
2783.9	0.577
2792.27	0.571
2800.64	0.564
2809.01	0.548
2817.38	0.537
2825.75	0.502
2834.12	0.465
2842.49	0.346
2850.86	0.204
2859.22	0.157
2867.59	0.182
2875.96	0.199
2884.33	0.222
2892.7	0.194
2901.07	0.157
2909.44	0.11
2917.81	0.09
2926.18	0.077
2934.55	0.086
2942.92	0.114
2951.28	0.129
2959.65	0.133
2968.02	0.16
2976.39	0.243
2984.76	0.338
2993.13	0.416
3001.5	0.455
3009.87	0.481
3018.24	0.494
3026.61	0.494
3034.98	0.5
3043.34	0.505
3051.71	0.504
3060.08	0.501
3068.45	0.505
3076.82	0.518
3085.19	0.523
3093.56	0.536
3101.93	0.544
3110.3	0.547
3118.67	0.547
3127.04	0.548
3135.4	0.547
3143.77	0.544
3152.14	0.543
3160.51	0.541
3168.88	0.538
3177.25	0.538
3185.62	0.538
3193.99	0.537
3202.36	0.534
3210.73	0.527
3219.1	0.526
3227.46	0.525
3235.83	0.522
3244.2	0.519
3252.57	0.502
3260.94	0.497
3269.31	0.48
3277.68	0.476
3286.05	0.469
3294.42	0.449
3302.79	0.433
3311.16	0.403
3319.52	0.389
3327.89	0.371
3336.26	0.363
3344.63	0.38
3353	0.416
3361.37	0.441
3369.74	0.467
3378.11	0.497
3386.48	0.516
3394.85	0.533
3403.22	0.543
3411.58	0.547
3419.95	0.548
3428.32	0.551
3436.69	0.551
3445.06	0.551
3453.43	0.552
3461.8	0.552
3470.17	0.552
3478.54	0.551
3486.91	0.55
3495.28	0.55
