Infrared Spectrum: 5-Amino-3-(2-thienyl)pyrazole
Formula: C 7 H 7 N 3 S
CAS: 96799-03-0
State: gas
Origin: EPA-IR VAPOR PHASE LIBRARY
1/CM	ABSORBANCE
549.8	0.005447
559.445	0.005827
569.09	0.007537
578.734	0.008267
588.379	0.008037
598.024	0.009307
607.669	0.010627
617.313	0.012047
626.958	0.011887
636.603	0.010267
646.248	0.009597
655.893	0.010397
665.537	0.013047
675.182	0.018647
684.827	0.028287
694.472	0.037207
704.116	0.023927
713.761	0.012827
723.406	0.008127
733.051	0.007057
742.695	0.008167
752.34	0.012577
761.985	0.018317
771.63	0.018667
781.275	0.013597
790.919	0.010247
800.564	0.008677
810.209	0.009037
819.854	0.011087
829.498	0.011917
839.143	0.014207
848.788	0.016197
858.433	0.012297
868.078	0.008387
877.722	0.007437
887.367	0.006987
897.012	0.007327
906.657	0.007867
916.301	0.010407
925.946	0.008877
935.591	0.005487
945.236	0.004497
954.88	0.004377
964.525	0.004507
974.17	0.007747
983.815	0.010307
993.46	0.005617
1003.1	0.003967
1012.75	0.003207
1022.39	0.003507
1032.04	0.003827
1041.68	0.005057
1051.33	0.005057
1060.97	0.004567
1070.62	0.004187
1080.26	0.005597
1089.91	0.005977
1099.55	0.006147
1109.2	0.003697
1118.84	0.003597
1128.49	0.003307
1138.13	0.003257
1147.78	0.002757
1157.42	0.002677
1167.07	0.002957
1176.71	0.002767
1186.36	0.002647
1196	0.003117
1205.64	0.002787
1215.29	0.006717
1224.93	0.009607
1234.58	0.005637
1244.22	0.002517
1253.87	0.002187
1263.51	0.002187
1273.16	0.003947
1282.8	0.005177
1292.45	0.005047
1302.09	0.002847
1311.74	0.002297
1321.38	0.002067
1331.03	0.002367
1340.67	0.002477
1350.32	0.002737
1359.96	0.002637
1369.61	0.003477
1379.25	0.006497
1388.9	0.008067
1398.54	0.007517
1408.18	0.007847
1417.83	0.009297
1427.47	0.009487
1437.12	0.008137
1446.76	0.009207
1456.41	0.013517
1466.05	0.016827
1475.7	0.022347
1485.34	0.030697
1494.99	0.021887
1504.63	0.013537
1514.28	0.027697
1523.92	0.042967
1533.57	0.029367
1543.21	0.012667
1552.86	0.008357
1562.5	0.008277
1572.15	0.014127
1581.79	0.023907
1591.44	0.025637
1601.08	0.026867
1610.73	0.036357
1620.37	0.034977
1630.01	0.018317
1639.66	0.008707
1649.3	0.005297
1658.95	0.003637
1668.59	0.002577
1678.24	0.002187
1687.88	0.001977
1697.53	0.002007
1707.17	0.002137
1716.82	0.002237
1726.46	0.002537
1736.11	0.001837
1745.75	0.0013969
1755.4	0.0013658
1765.04	0.001627
1774.69	0.002037
1784.33	0.002297
1793.98	0.001717
1803.62	0.0012191
1813.27	0.0010737
1822.91	0.0011991
1832.55	0.0011226
1842.2	0.0012269
1851.84	0.0010593
1861.49	0.0011493
1871.13	0.0010885
1880.78	0.001206
1890.42	0.0010668
1900.07	0.0009657
1909.71	0.0008628
1919.36	0.0009715
1929	0.0007928
1938.65	0.0009107
1948.29	0.0008424
1957.94	0.0008825
1967.58	0.0009302
1977.23	0.0007089
1986.87	0.0007898
1996.52	0.0007483
2006.16	0.0008618
2015.81	0.0008091
2025.45	0.0009487
2035.1	0.0008912
2044.74	0.0007827
2054.38	0.0009826
2064.03	0.0009193
2073.67	0.0010826
2083.32	0.0010097
2092.96	0.0009393
2102.61	0.0010152
2112.25	0.0009604
2121.9	0.0010161
2131.54	0.0010678
2141.19	0.0010744
2150.83	0.0011578
2160.48	0.0012141
2170.12	0.0011598
2179.77	0.001142
2189.41	0.0012098
2199.06	0.0011138
2208.7	0.0010476
2218.35	0.0010277
2227.99	0.0010634
2237.64	0.0011267
2247.28	0.001095
2256.92	0.0011528
2266.57	0.0011542
2276.21	0.0009411
2285.86	0.0010011
2295.5	0.0008985
2305.15	0.0010648
2314.79	0.0011629
2324.44	0.0010178
2334.08	0.0009125
2343.73	0.0010387
2353.37	0.000912
2363.02	0.00084
2372.66	0.0009291
2382.31	0.0007855
2391.95	0.0010105
2401.6	0.0007446
2411.24	0.0007776
2420.89	0.0008167
2430.53	0.0007627
2440.18	0.000786
2449.82	0.0008778
2459.47	0.0010591
2469.11	0.0008839
2478.75	0.0008373
2488.4	0.0009562
2498.04	0.0010235
2507.69	0.0009399
2517.33	0.0009081
2526.98	0.0007688
2536.62	0.000805
2546.27	0.0009277
2555.91	0.0008866
2565.56	0.0007737
2575.2	0.0011025
2584.85	0.0010701
2594.49	0.000736
2604.14	0.0009438
2613.78	0.0008973
2623.43	0.0007478
2633.07	0.0008735
2642.72	0.0008791
2652.36	0.000884
2662.01	0.0008176
2671.65	0.0010979
2681.29	0.0009282
2690.94	0.0008957
2700.58	0.0007936
2710.23	0.0007984
2719.87	0.0006898
2729.52	0.0007496
2739.16	0.0008654
2748.81	0.0008694
2758.45	0.0007936
2768.1	0.0008704
2777.74	0.0008036
2787.39	0.0009109
2797.03	0.0008935
2806.68	0.0008624
2816.32	0.0010741
2825.97	0.0007069
2835.61	0.0008531
2845.26	0.0008338
2854.9	0.0007332
2864.55	0.000924
2874.19	0.0010543
2883.84	0.0009724
2893.48	0.0006117
2903.12	0.0008411
2912.77	0.0008578
2922.41	0.0007968
2932.06	0.0005223
2941.7	0.0008157
2951.35	0.0007958
2960.99	0.0007394
2970.64	0.0008177
2980.28	0.0007986
2989.93	0.0008301
2999.57	0.000658
3009.22	0.0007058
3018.86	0.0005918
3028.51	0.0007753
3038.15	0.0007862
3047.8	0.0009425
3057.44	0.001342
3067.09	0.002407
3076.73	0.003877
3086.38	0.004637
3096.02	0.002587
3105.67	0.001797
3115.31	0.001547
3124.95	0.0012999
3134.6	0.0010797
3144.24	0.0005394
3153.89	0.0006764
3163.53	0.000667
3173.18	0.0007693
3182.82	0.0005949
3192.47	0.0006012
3202.11	0.0009233
3211.76	0.0007354
3221.4	0.0008115
3231.05	0.0007586
3240.69	0.0010247
3250.34	0.000853
3259.98	0.0008233
3269.63	0.0008816
3279.27	0.0007077
3288.92	0.0007907
3298.56	0.0007336
3308.21	0.00049799
3317.85	0.0006031
3327.49	0.0007627
3337.14	0.0006841
3346.78	0.0008543
3356.43	0.0009307
3366.07	0.0007982
3375.72	0.001537
3385.36	0.003227
3395.01	0.005497
3404.65	0.004787
3414.3	0.002097
3423.94	0.001737
3433.59	0.001787
3443.23	0.002117
3452.88	0.002607
3462.52	0.004617
3472.17	0.008137
3481.81	0.013137
3491.46	0.018407
3501.1	0.021477
3510.75	0.017447
3520.39	0.010287
3530.04	0.005357
3539.68	0.002767
3549.32	0.001557
3558.97	0.0012256
3568.61	0.0007749
3578.26	0.0011103
3587.9	0.00045672
3597.55	0.0008801
3607.19	0.000415591
3616.84	0.0003865
3626.48	0.0003502
3636.13	0.0003908
3645.77	0.0003577
3655.42	0.00046874
3665.06	0.00041945
3674.71	8.7e-05
3684.35	0.0003643
3694	0.0006282
3703.64	0.00049148
3713.29	0.000243
3722.93	0.000232
3732.58	0.00047611
3742.22	0.000231
3751.86	0.00042
3761.51	0.0003159
3771.15	0.00044929
3780.8	0.0003
3790.44	0.0005862
3800.09	0.000306
3809.73	0.00040229
3819.38	0.00039702
3829.02	0.0005305
3838.67	0.00040343
3848.31	0.00022
3857.96	0.00040234
3867.6	0.0003554
3877.25	0.0003333
3886.89	0.0005741
3896.54	0.0005473
3906.18	0.0003375
3915.83	0.00046772
3925.47	0.000225
3935.12	0.0003416
3944.76	0.00047172
3954.41	0.0005512
3964.05	0.000281
3973.69	0.0005262
3983.34	0.0004551
3992.98	0.000525
