Infrared Spectrum: 3-Amino-5-(2-furyl)pyrazole
Formula: C 7 H 7 N 3 O
CAS: 96799-02-9
State: gas
Origin: EPA-IR VAPOR PHASE LIBRARY
1/CM	ABSORBANCE
549.8	0.00545
559.445	0.00578
569.09	0.00602
578.734	0.0073
588.379	0.00924
598.024	0.00909
607.669	0.00945
617.313	0.0114
626.958	0.01056
636.603	0.01002
646.248	0.00867
655.893	0.00793
665.537	0.0085
675.182	0.00979
684.827	0.01248
694.472	0.01112
704.116	0.00967
713.761	0.01252
723.406	0.01719
733.051	0.02154
742.695	0.01649
752.34	0.01462
761.985	0.01944
771.63	0.02022
781.275	0.01745
790.919	0.01359
800.564	0.01084
810.209	0.00841
819.854	0.00673
829.498	0.00739
839.143	0.00725
848.788	0.00666
858.433	0.00682
868.078	0.00709
877.722	0.00882
887.367	0.01407
897.012	0.01106
906.657	0.00743
916.301	0.00642
925.946	0.00823
935.591	0.00744
945.236	0.00743
954.88	0.00734
964.525	0.0092
974.17	0.01263
983.815	0.01354
993.46	0.0114
1003.1	0.01036
1012.75	0.01193
1022.39	0.01032
1032.04	0.00636
1041.68	0.00438
1051.33	0.00609
1060.97	0.00697
1070.62	0.00783
1080.26	0.0072
1089.91	0.00755
1099.55	0.00758
1109.2	0.00705
1118.84	0.002891
1128.49	0.00195
1138.13	0.0032812
1147.78	0.00651
1157.42	0.00798
1167.07	0.00549
1176.71	0.00415
1186.36	0.00316856
1196	0.00478
1205.64	0.00467
1215.29	0.00785
1224.93	0.00538
1234.58	0.00426
1244.22	0.0040408
1253.87	0.00161
1263.51	0.00117
1273.16	0.00235
1282.8	0.00464
1292.45	0.00459
1302.09	0.00314432
1311.74	0.002137
1321.38	0.002546
1331.03	0.002296
1340.67	0.002247
1350.32	0.002432
1359.96	0.00309315
1369.61	0.00411
1379.25	0.00485
1388.9	0.00561
1398.54	0.00561
1408.18	0.00602
1417.83	0.00722
1427.47	0.0098
1437.12	0.01143
1446.76	0.01041
1456.41	0.01031
1466.05	0.01378
1475.7	0.02056
1485.34	0.024
1494.99	0.02098
1504.63	0.03111
1514.28	0.0308
1523.92	0.01502
1533.57	0.01619
1543.21	0.02476
1552.86	0.0305
1562.5	0.02312
1572.15	0.01496
1581.79	0.01456
1591.44	0.01237
1601.08	0.01577
1610.73	0.02442
1620.37	0.02499
1630.01	0.01623
1639.66	0.00913
1649.3	0.0053
1658.95	0.0037978
1668.59	0.002634
1678.24	0.002181
1687.88	0.00205
1697.53	0.002825
1707.17	0.0035386
1716.82	0.0030627
1726.46	0.002141
1736.11	0.00152
1745.75	0.00171
1755.4	0.0016
1765.04	0.00201
1774.69	0.00163
1784.33	0.00168
1793.98	0.00167
1803.62	0.00164
1813.27	0.00161
1822.91	0.00154
1832.55	0.00172
1842.2	0.0017
1851.84	0.00158
1861.49	0.00161
1871.13	0.00187
1880.78	0.00154
1890.42	0.00147
1900.07	0.00157
1909.71	0.00135
1919.36	0.00154
1929	0.00158
1938.65	0.00162
1948.29	0.00163
1957.94	0.00158
1967.58	0.0017
1977.23	0.00162
1986.87	0.00155
1996.52	0.0015
2006.16	0.0013
2015.81	0.00146
2025.45	0.00159
2035.1	0.0014
2044.74	0.00156
2054.38	0.00127
2064.03	0.00169
2073.67	0.00155
2083.32	0.00154
2092.96	0.00176
2102.61	0.00179
2112.25	0.00146
2121.9	0.00159
2131.54	0.00174
2141.19	0.0016
2150.83	0.00167
2160.48	0.00167
2170.12	0.0016
2179.77	0.00171
2189.41	0.00118
2199.06	0.0017
2208.7	0.00147
2218.35	0.00149
2227.99	0.00169
2237.64	0.00142
2247.28	0.00124
2256.92	0.00145
2266.57	0.00178
2276.21	0.00101
2285.86	0.00162
2295.5	0.00173
2305.15	0.00151
2314.79	0.00195
2324.44	0.00177
2334.08	0.00164
2343.73	0.00158
2353.37	0.00115
2363.02	0.0016
2372.66	0.00167
2382.31	0.00177
2391.95	0.00154
2401.6	0.00146
2411.24	0.00109
2420.89	0.00109
2430.53	0.0016
2440.18	0.00162
2449.82	0.00149
2459.47	0.00129
2469.11	0.00181
2478.75	0.0012
2488.4	0.00163
2498.04	0.00167
2507.69	0.0015
2517.33	0.00186
2526.98	0.00137
2536.62	0.00145
2546.27	0.00099
2555.91	0.00178
2565.56	0.00168
2575.2	0.00193
2584.85	0.00141
2594.49	0.00142
2604.14	0.00182
2613.78	0.00168
2623.43	0.00187
2633.07	0.00159
2642.72	0.00153
2652.36	0.00149
2662.01	0.00152
2671.65	0.00174
2681.29	0.00163
2690.94	0.00173
2700.58	0.00139
2710.23	0.00111
2719.87	0.00107
2729.52	0.00175
2739.16	0.00168
2748.81	0.0014
2758.45	0.0016
2768.1	0.00118
2777.74	0.00167
2787.39	0.00141
2797.03	0.00172
2806.68	0.00106
2816.32	0.00158
2825.97	0.00143
2835.61	0.00135
2845.26	0.00174
2854.9	0.00138
2864.55	0.00165
2874.19	0.00202
2883.84	0.00151
2893.48	0.00135
2903.12	0.00105
2912.77	0.00102
2922.41	0.00118
2932.06	0.00098
2941.7	0.00127
2951.35	0.00112
2960.99	0.00115
2970.64	0.00103
2980.28	0.00127
2989.93	0.00044
2999.57	0.00128
3009.22	0.00101
3018.86	0.00138
3028.51	0.00163
3038.15	0.00129
3047.8	0.0012
3057.44	0.00084
3067.09	0.00118
3076.73	0.00146
3086.38	0.00063
3096.02	0.0017
3105.67	0.00136
3115.31	0.00206
3124.95	0.0034296
3134.6	0.002753
3144.24	0.00141
3153.89	0.002421
3163.53	0.0014
3173.18	0.00138
3182.82	0.00114
3192.47	0.00086
3202.11	0.00115
3211.76	0.00091
3221.4	0.00161
3231.05	0.00163
3240.69	0.00079
3250.34	0.0017
3259.98	0.00112
3269.63	0.00166
3279.27	0.00151
3288.92	0.002134
3298.56	0.00116
3308.21	0.00078
3317.85	0.00172
3327.49	0.00117
3337.14	0.00123
3346.78	0.00081
3356.43	0.00067
3366.07	0.00082
3375.72	0.00144
3385.36	0.0030126
3395.01	0.00504
3404.65	0.00497
3414.3	0.00206
3423.94	0.002323
3433.59	0.00174
3443.23	0.00087
3452.88	0.002803
3462.52	0.0039726
3472.17	0.00659
3481.81	0.00936
3491.46	0.01293
3501.1	0.01826
3510.75	0.02017
3520.39	0.0158
3530.04	0.00838
3539.68	0.00439
3549.32	0.00145
3558.97	0.002404
3568.61	0.00139
3578.26	0.00109
3587.9	0.00115
3597.55	0.00174
3607.19	0.00092
3616.84	0.00104
3626.48	0.00079
3636.13	0.00141
3645.77	0.00155
3655.42	0.00092
3665.06	0.00092
3674.71	0.00075
3684.35	0.0013
3694	0.00149
3703.64	0.00039
3713.29	0.00112
3722.93	0.00076
3732.58	0.00034
3742.22	0.00132
3751.86	0.00081
3761.51	0.00073
3771.15	0.0011
3780.8	0.00068
3790.44	0.00132
3800.09	0.00092
3809.73	0.00087
3819.38	0.002293
3829.02	0.00167
3838.67	0.00097
3848.31	0.00149
3857.96	0.00068
3867.6	0.00111
3877.25	0.00187
3886.89	0.00097
3896.54	0.00042
3906.18	0.00144
3915.83	0.00082
3925.47	0.0008
3935.12	0.00115
3944.76	0.00022
3954.41	0.00047
3964.05	0.00086
3973.69	0.0019
3983.34	0.00027
3992.98	0.00182
