Infrared Spectrum: 4-PREGNENE-3,11,20-TRIONE, 17Alpha,21-DIHYDROXY-, 21-ACETATE
Formula: C23 H30 O6
CAS: 96843-92-4
State: SOLID (1.05 mg / 200 mg KBr DISC)
Melting point: 235-238 C
Class: COBLENTZ III
Instrument: PERKIN-ELMER 21 (GRATING)
Instrument parameters: FILTER AT ABOUT 10 MICRONS
Sampling: TRANSMISSION
Path length: 0.055 CM (THICKNESS)
Resolution: 2
1/CM	TRANSMITTANCE
4000	0.8512
3991	0.8514
3982	0.8517
3973	0.852
3964	0.8524
3955	0.8527
3946	0.853
3937	0.8534
3928	0.8536
3919	0.854
3910	0.8545
3901	0.8549
3892	0.8554
3883	0.8558
3874	0.8562
3865	0.8567
3856	0.8571
3847	0.8575
3838	0.8578
3829	0.8581
3820	0.8585
3811	0.8588
3802	0.8592
3793	0.8596
3784	0.86
3775	0.8602
3766	0.8604
3757	0.8607
3748	0.8609
3739	0.8611
3730	0.8614
3721	0.8613
3712	0.861
3703	0.8606
3694	0.8603
3685	0.8599
3676	0.8592
3667	0.8585
3658	0.8578
3649	0.8571
3640	0.8561
3631	0.8546
3622	0.8532
3613	0.8517
3604	0.8493
3595	0.8462
3586	0.843
3577	0.8389
3568	0.8328
3559	0.8268
3550	0.819
3541	0.8094
3532	0.7797
3523	0.7522
3514	0.726
3505	0.6995
3496	0.6728
3487	0.6461
3478	0.6192
3469	0.5921
3460	0.565
3451	0.5375
3442	0.5101
3433	0.4825
3424	0.463
3415	0.4608
3406	0.4603
3397	0.4612
3388	0.4724
3379	0.4915
3370	0.5107
3361	0.5301
3352	0.5495
3343	0.5691
3334	0.5888
3325	0.6086
3316	0.6284
3307	0.6484
3298	0.6685
3289	0.6886
3280	0.7065
3271	0.7214
3262	0.7345
3253	0.7451
3244	0.7558
3235	0.7662
3226	0.7745
3217	0.7825
3208	0.7894
3199	0.7962
3190	0.8033
3181	0.8086
3172	0.8136
3163	0.8181
3154	0.8218
3145	0.8253
3136	0.8275
3127	0.8298
3118	0.8314
3109	0.833
3100	0.8344
3091	0.8357
3082	0.8366
3073	0.8363
3064	0.836
3055	0.8341
3046	0.8318
3037	0.8286
3028	0.8249
3019	0.8196
3010	0.8101
3001	0.7987
2992	0.7849
2983	0.7035
2974	0.6671
2965	0.6305
2956	0.5937
2947	0.5567
2938	0.5204
2929	0.5189
2920	0.5299
2911	0.544
2902	0.5636
2893	0.6002
2884	0.6419
2875	0.6595
2866	0.6618
2857	0.6669
2848	0.6896
2839	0.7151
2830	0.7408
2821	0.7668
2812	0.7847
2803	0.8001
2794	0.8107
2785	0.8189
2776	0.8256
2767	0.8307
2758	0.835
2749	0.839
2740	0.8416
2731	0.8443
2722	0.8466
2713	0.8487
2704	0.8508
2695	0.8527
2686	0.8542
2677	0.8557
2668	0.8568
2659	0.8577
2650	0.8571
2641	0.8567
2632	0.8564
2623	0.8575
2614	0.8608
2605	0.8596
2596	0.8594
2587	0.8603
2578	0.8633
2569	0.8662
2560	0.8685
2551	0.8703
2542	0.8693
2533	0.8677
2524	0.8664
2515	0.8657
2506	0.8667
2497	0.8678
2488	0.8692
2479	0.8706
2470	0.8715
2461	0.8716
2452	0.8717
2443	0.8711
2434	0.8728
2425	0.8753
2416	0.8745
2407	0.8724
2398	0.8707
2389	0.872
2380	0.874
2371	0.8762
2362	0.8775
2353	0.878
2344	0.8783
2335	0.8781
2326	0.8775
2317	0.877
2308	0.8765
2299	0.8762
2290	0.8759
2281	0.8758
2272	0.8759
2263	0.8761
2254	0.8764
2245	0.8766
2236	0.8768
2227	0.8771
2218	0.8774
2209	0.8775
2200	0.8778
2191	0.8782
2182	0.8784
2173	0.8788
2164	0.8793
2155	0.8801
2146	0.8808
2137	0.8818
2128	0.8825
2119	0.8828
2110	0.8818
2101	0.88
2092	0.878
2083	0.8767
2074	0.8758
2065	0.8759
2056	0.876
2047	0.8763
2038	0.8766
2029	0.8771
2020	0.8775
2011	0.878
2002	0.8784
1993	0.8789
1984	0.8793
1975	0.8797
1966	0.8801
1957	0.8804
1948	0.8806
1939	0.8809
1930	0.881
1921	0.8806
1912	0.8802
1903	0.8793
1894	0.8775
1885	0.8761
1876	0.8749
1867	0.8738
1858	0.8731
1849	0.8721
1840	0.8708
1831	0.8649
1822	0.8571
1813	0.852
1804	0.8432
1795	0.8299
1786	0.8118
1777	0.7487
1768	0.6298
1759	0.4143
1750	0.3349
1741	0.4329
1732	0.3025
1723	0.275
1714	0.28
1705	0.2121
1696	0.3218
1687	0.4514
1678	0.3618
1669	0.3325
1660	0.2551
1651	0.1834
1642	0.403
1633	0.559
1624	0.6052
1615	0.5783
1606	0.6287
1597	0.755
1588	0.8004
1579	0.8156
1570	0.8291
1561	0.8315
1552	0.8351
1543	0.8392
1534	0.8488
1525	0.8484
1516	0.8475
1507	0.8409
1498	0.8368
1489	0.8295
1480	0.8005
1471	0.7218
1462	0.6901
1453	0.6615
1444	0.6574
1435	0.6315
1426	0.5729
1417	0.5229
1408	0.5937
1399	0.644
1390	0.6092
1381	0.5293
1372	0.4141
1363	0.5655
1354	0.5643
1345	0.6344
1336	0.6865
1327	0.7007
1318	0.7344
1309	0.7185
1300	0.6637
1291	0.6864
1282	0.5152
1273	0.4492
1264	0.4265
1255	0.516
1246	0.4123
1237	0.2342
1228	0.2079
1219	0.356
1210	0.55
1201	0.5914
1192	0.5068
1183	0.639
1174	0.6696
1165	0.6705
1156	0.7334
1147	0.7461
1138	0.6821
1129	0.616
1120	0.6976
1111	0.6411
1102	0.6462
1093	0.6216
1084	0.6465
1075	0.7234
1066	0.706
1057	0.6374
1048	0.4485
1039	0.5845
1030	0.6844
1021	0.7303
1012	0.7641
1003	0.7841
994	0.7974
985	0.701
976	0.7908
967	0.7955
958	0.7988
949	0.7251
940	0.7481
931	0.6832
922	0.7134
913	0.7578
904	0.7589
895	0.6944
886	0.7215
877	0.7785
868	0.6468
859	0.7867
850	0.7896
841	0.7271
832	0.8191
823	0.8464
814	0.8577
805	0.8346
796	0.8071
787	0.7525
778	0.7536
769	0.8342
760	0.8543
751	0.8268
742	0.8275
733	0.8421
724	0.8559
715	0.858
706	0.8597
697	0.8403
688	0.758
679	0.8192
670	0.8165
661	0.7974
