Infrared Spectrum: 11Beta,17Alpha-DIHYDROXY-2Beta,21-DIACETOXYPREGN-4-ENE-3,20-DIONE
Formula: C25 H34 O8
CAS: 96893-42-4
State: SOLID (KBr DISC)
Class: COBLENTZ III
Instrument: BECKMAN IR-7
Sampling: TRANSMISSION
Resolution: 4
Origin: THE WORCESTER FOUNDATION FOR EXPERIMENTAL BIOLOGY, Neal L. McNiven
1/CM	TRANSMITTANCE
602.181	0.396
610.904	0.442
619.626	0.485
628.349	0.548
637.072	0.576
645.795	0.59
654.517	0.629
663.24	0.653
671.963	0.684
680.686	0.704
689.408	0.724
698.131	0.735
706.854	0.709
715.577	0.7219
724.299	0.79
733.022	0.803
741.745	0.795
750.468	0.763
759.19	0.791
767.913	0.829
776.636	0.79
785.359	0.721
794.081	0.787
802.804	0.839
811.527	0.873
820.25	0.889
828.972	0.868
837.695	0.795
846.418	0.787
855.141	0.753
863.863	0.808
872.586	0.739
881.309	0.658
890.032	0.752
898.754	0.761
907.477	0.745
916.2	0.77
924.923	0.763
933.645	0.851
942.368	0.828
951.091	0.854
959.814	0.855
968.536	0.842
977.259	0.79
985.982	0.766
994.705	0.721
1003.43	0.734
1012.15	0.688
1020.87	0.562
1029.6	0.5299
1038.32	0.552
1047.04	0.429
1055.76	0.367
1064.49	0.411
1073.21	0.529
1081.93	0.54
1090.65	0.616
1099.38	0.708
1108.1	0.596
1116.82	0.542
1125.55	0.551
1134.27	0.683
1142.99	0.692
1151.71	0.722
1160.44	0.717
1169.16	0.677
1177.88	0.714
1186.61	0.574
1195.33	0.589
1204.05	0.421
1212.77	0.212
1221.5	0.167
1230.22	0.217
1238.94	0.222
1247.66	0.204
1256.39	0.375
1265.11	0.458
1273.83	0.509
1282.56	0.595
1291.28	0.687
1300	0.727
1308.72	0.745
1317.45	0.756
1326.17	0.755
1334.89	0.711
1343.61	0.661
1352.34	0.62
1361.06	0.53
1369.78	0.412
1378.51	0.4279
1387.23	0.58
1395.95	0.678
1404.67	0.617
1413.4	0.667
1422.12	0.643
1430.84	0.688
1439.56	0.641
1448.29	0.68
1457.01	0.576
1465.73	0.76
1474.46	0.825
1483.18	0.91
1491.9	0.925
1500.62	0.937
1509.35	0.947
1518.07	0.952
1526.79	0.954
1535.52	0.956
1544.24	0.957
1552.96	0.952
1561.68	0.95
1570.41	0.938
1579.13	0.915
1587.85	0.887
1596.57	0.85
1605.3	0.711
1614.02	0.579
1622.74	0.626
1631.47	0.742
1640.19	0.741
1648.91	0.679
1657.63	0.495
1666.36	0.273
1675.08	0.343
1683.8	0.291
1692.52	0.262
1701.25	0.459
1709.97	0.291
1718.69	0.233
1727.42	0.159
1736.14	0.181
1744.86	0.212
1753.58	0.259
1762.31	0.6579
1771.03	0.813
1779.75	0.866
1788.47	0.896
1797.2	0.91
1805.92	0.931
1814.64	0.95
1823.37	0.957
1832.09	0.964
1840.81	0.968
1849.53	0.973
1858.26	0.978
1866.98	0.981
1875.7	0.984
1884.43	0.984
1893.15	0.986
1901.87	0.987
1910.59	0.987
1919.32	0.987
1928.04	0.986
1936.76	0.985
1945.48	0.979
1954.21	0.98
1962.93	0.984
1971.65	0.986
1980.38	0.987
1989.1	0.988
1997.82	0.987
2006.54	0.986
2015.27	0.986
2023.99	0.985
2032.71	0.984
2041.43	0.984
2050.16	0.984
2058.88	0.984
2067.6	0.983
2076.33	0.983
2085.05	0.983
2093.77	0.9824
2102.49	0.982
2111.22	0.982
2119.94	0.982
2128.66	0.9827
2137.38	0.983
2146.11	0.9838
2154.83	0.984
2163.55	0.984
2172.28	0.984
2181	0.9849
2189.72	0.986
2198.44	0.9869
2207.17	0.989
2215.89	0.989
2224.61	0.989
2233.34	0.988
2242.06	0.9879
2250.78	0.987
2259.5	0.986
2268.23	0.9858
2276.95	0.9848
2285.67	0.984
2294.39	0.984
2303.12	0.983
2311.84	0.9816
2320.56	0.9796
2329.29	0.976
2338.01	0.974
2346.73	0.973
2355.45	0.971
2364.18	0.9695
2372.9	0.9696
2381.62	0.971
2390.34	0.9726
2399.07	0.973
2407.79	0.973
2416.51	0.973
2425.24	0.972
2433.96	0.971
2442.68	0.9692
2451.4	0.968
2460.13	0.968
2468.85	0.967
2477.57	0.9651
2486.29	0.965
2495.02	0.963
2503.74	0.963
2512.46	0.962
2521.19	0.961
2529.91	0.96
2538.63	0.958
2547.35	0.956
2556.08	0.955
2564.8	0.954
2573.52	0.952
2582.25	0.9507
2590.97	0.9496
2599.69	0.947
2608.41	0.9456
2617.14	0.9436
2625.86	0.942
2634.58	0.9395
2643.3	0.939
2652.03	0.9374
2660.75	0.9364
2669.47	0.934
2678.2	0.9313
2686.92	0.9293
2695.64	0.9273
2704.36	0.926
2713.09	0.9242
2721.81	0.924
2730.53	0.923
2739.25	0.923
2747.98	0.922
2756.7	0.921
2765.42	0.918
2774.15	0.916
2782.87	0.9129
2791.59	0.9089
2800.31	0.9045
2809.04	0.8883
2817.76	0.8598
2826.48	0.8293
2835.2	0.7855
2843.93	0.7411
2852.65	0.7173
2861.37	0.6641
2870.1	0.6396
2878.82	0.6373
2887.54	0.6438
2896.26	0.599
2904.99	0.558
2913.71	0.5035
2922.43	0.4843
2931.15	0.4707
2939.88	0.4702
2948.6	0.5642
2957.32	0.6137
2966.05	0.6429
2974.77	0.6738
2983.49	0.6933
2992.21	0.7272
3000.94	0.7504
3009.66	0.7731
3018.38	0.7969
3027.11	0.8068
3035.83	0.8119
3044.55	0.8605
3053.27	0.874
3062	0.8761
3070.72	0.881
3079.44	0.8821
3088.16	0.882
3096.89	0.8808
3105.61	0.8778
3114.33	0.876
3123.06	0.874
3131.78	0.8717
3140.5	0.871
3149.22	0.8687
3157.95	0.8676
3166.67	0.8656
3175.39	0.8636
3184.11	0.8605
3192.84	0.8565
3201.56	0.8535
3210.28	0.85
3219.01	0.8474
3227.73	0.8444
3236.45	0.8387
3245.17	0.8326
3253.9	0.8268
3262.62	0.8195
3271.34	0.8112
3280.06	0.7997
3288.79	0.7903
3297.51	0.7825
3306.23	0.7655
3314.96	0.7483
3323.68	0.7272
3332.4	0.713
3341.12	0.7009
3349.85	0.6897
3358.57	0.6703
3367.29	0.6556
3376.02	0.6415
3384.74	0.6282
3393.46	0.6107
3402.18	0.5963
3410.91	0.5894
3419.63	0.5804
3428.35	0.5733
3437.07	0.5671
3445.8	0.5532
3454.52	0.5458
3463.24	0.5263
3471.97	0.4709
3480.69	0.4411
3489.41	0.4147
3498.13	0.384
3506.86	0.4003
3515.58	0.4326
3524.3	0.468
3533.02	0.5089
3541.75	0.5347
3550.47	0.56
3559.19	0.5963
3567.92	0.6174
3576.64	0.6325
3585.36	0.64
3594.08	0.6334
3602.81	0.6142
3611.53	0.603
3620.25	0.6303
3628.97	0.6696
3637.7	0.7254
3646.42	0.7689
3655.14	0.8
3663.87	0.8291
3672.59	0.8461
3681.31	0.8662
3690.03	0.8718
3698.76	0.882
3707.48	0.8863
3716.2	0.887
3724.93	0.8884
3733.65	0.8894
3742.37	0.89
3751.09	0.89
3759.82	0.8895
3768.54	0.889
3777.26	0.8874
3785.98	0.887
3794.71	0.887
3803.43	0.8884
3812.15	0.889
3820.88	0.889
3829.6	0.888
3838.32	0.887
3847.04	0.887
3855.77	0.885
3864.49	0.884
3873.21	0.884
3881.93	0.882
3890.66	0.883
3899.38	0.881
3908.1	0.8791
3916.83	0.8788
3925.55	0.8759
3934.27	0.8742
3942.99	0.876
3951.72	0.876
3960.44	0.8738
3969.16	0.871
3977.88	0.87
3986.61	0.869
3995.33	0.868
4004.05	0.867
4012.78	0.868
4021.5	0.867
