Infrared Spectrum: Methylhydroquinone
Formula: C 7 H 8 O 2
CAS: 96937-50-7
State: gas
Instrument: HP-GC/MS/IRD
Origin: NIST Mass Spectrometry Data Center
1/CM	ABSORBANCE
550	0.0009384
562	0.0011408
574	0.0011201
586	0.0006256
598	0.0002599
610	4.14e-05
622	2.3e-05
634	0
646	0.0001127
658	5.98e-05
670	0.0001242
682	0.0001334
694	0.0001357
706	0.000414
718	0.0015433
730	0.0020171
742	0.0010005
754	0.001679
766	0.0044183
778	0.0044666
790	0.0030705
802	0.0031211
814	0.0021091
826	0.0013662
838	0.0017733
850	0.0018676
862	0.0017733
874	0.0010511
886	0.0007337
898	0.000828
910	0.0007337
922	0.0006417
934	0.0007498
946	0.0010166
958	0.000943
970	0.0008234
982	0.0013202
994	0.0019941
1006	0.0017227
1018	0.0008648
1030	0.0006118
1042	0.0005681
1054	0.0006601
1066	0.0009637
1078	0.0016744
1090	0.0028635
1102	0.0029164
1114	0.002024
1126	0.0028106
1138	0.0055798
1150	0.0088458
1162	0.0174317
1174	0.023
1186	0.0179009
1198	0.0121417
1210	0.0077119
1222	0.007521
1234	0.0075417
1246	0.0052969
1258	0.0034454
1270	0.0037766
1282	0.0060421
1294	0.0078752
1306	0.006394
1318	0.0038019
1330	0.0021137
1342	0.0011822
1354	0.0007912
1366	0.0006808
1378	0.0008073
1390	0.0008924
1402	0.0009637
1414	0.0016836
1426	0.0033488
1438	0.0044321
1450	0.0037421
1462	0.0032729
1474	0.0040112
1486	0.0072726
1498	0.0145268
1510	0.0154307
1522	0.0075601
1534	0.0023989
1546	0.0013432
1558	0.0010327
1570	0.0008648
1582	0.0010281
1594	0.0014168
1606	0.0015962
1618	0.0014536
1630	0.0011063
1642	0.0009177
1654	0.0017848
1666	0.00391
1678	0.0041952
1690	0.0016583
1702	0.0006486
1714	0.000506
1726	0.0004393
1738	0.0003864
1750	0.0003128
1762	0.0002208
1774	0.0001955
1786	0.0001357
1798	0.0001288
1810	0.0001288
1822	0.0001794
1834	0.0001564
1846	0.0001196
1858	0.0001311
1870	0.0001472
1882	8.97e-05
1894	5.06e-05
1906	5.06e-05
1918	1.61e-05
1930	2.53e-05
1942	4.37e-05
1954	3.68e-05
1966	3.91e-05
1978	2.76e-05
1990	5.98e-05
2002	8.05e-05
2014	6.9e-05
2026	6.67e-05
2038	7.36e-05
2050	9.89e-05
2062	5.52e-05
2074	1.84e-05
2086	0
2098	2.99e-05
2110	2.76e-05
2122	2.3e-06
2134	9.2e-06
2146	2.3e-06
2158	1.15e-05
2170	1.84e-05
2182	2.53e-05
2194	2.53e-05
2206	1.84e-05
2218	3.68e-05
2230	4.6e-05
2242	4.14e-05
2254	4.14e-05
2266	7.13e-05
2278	9.2e-05
2290	4.83e-05
2302	5.52e-05
2314	6.9e-05
2326	0.0001173
2338	0.000138
2350	0.0001311
2362	0.0001403
2374	0.0001656
2386	0.0001426
2398	0.0001127
2410	0.0001081
2422	0.0001357
2434	0.0001518
2446	0.0001564
2458	0.0001633
2470	0.0001702
2482	0.0001748
2494	0.0001173
2506	7.82e-05
2518	8.51e-05
2530	6.9e-05
2542	5.75e-05
2554	4.6e-05
2566	4.6e-05
2578	5.06e-05
2590	3.22e-05
2602	3.45e-05
2614	3.68e-05
2626	1.15e-05
2638	3.68e-05
2650	2.53e-05
2662	0
2674	0
2686	0
2698	4.14e-05
2710	2.99e-05
2722	3.68e-05
2734	7.36e-05
2746	0.0001104
2758	8.28e-05
2770	5.06e-05
2782	4.83e-05
2794	4.6e-05
2806	0.0001081
2818	0.0001242
2830	0.0001932
2842	0.0002875
2854	0.000575
2866	0.0009315
2878	0.0010879
2890	0.0010097
2902	0.001058
2914	0.0014421
2926	0.0020792
2938	0.002185
2950	0.0016652
2962	0.001242
2974	0.0012236
2986	0.0011983
2998	0.0011385
3010	0.0015755
3022	0.0023598
3034	0.0024334
3046	0.0017204
3058	0.001242
3070	0.0009016
3082	0.0006348
3094	0.0003772
3106	0.0002415
3118	0.0002139
3130	0.0001748
3142	0.0001127
3154	8.05e-05
3166	3.45e-05
3178	3.91e-05
3190	3.68e-05
3202	3.45e-05
3214	1.38e-05
3226	1.15e-05
3238	6.9e-06
3250	2.07e-05
3262	4.14e-05
3274	9.2e-06
3286	4.83e-05
3298	6.9e-05
3310	8.28e-05
3322	8.51e-05
3334	9.66e-05
3346	0.0001081
3358	9.89e-05
3370	0.000115
3382	0.000138
3394	0.0002024
3406	0.0001817
3418	0.0002323
3430	0.0002277
3442	0.0002001
3454	0.0002024
3466	0.0001656
3478	0.0001633
3490	0.0001403
3502	0.0001449
3514	0.0001311
3526	0.0001127
3538	7.13e-05
3550	5.06e-05
3562	5.98e-05
3574	9.2e-05
3586	0.0001656
3598	0.0002001
3610	0.0003887
3622	0.0007912
3634	0.0025093
3646	0.0081443
3658	0.0103661
3670	0.0055246
3682	0.00092
3694	0.0002576
3706	0.0001403
3718	0.0001472
3730	7.59e-05
3742	0.0001334
3754	0.0001242
3766	0.0001081
3778	0.0001311
3790	0.0001886
3802	0.0002254
3814	0.0001863
3826	0.0001909
3838	0.0002116
