Infrared Spectrum: 1-BENZYL-3-(1,3-DICARBETHOXYPROPYL) UREA
Formula: C17 H24 N2 O5
CAS: 96977-92-3
State: SOLID (KBr PRESSING)
Melting point: 91 C
Class: COBLENTZ
Instrument: Not specified, most likely a prism, grating, or hybrid spectrometer.
Sampling: TRANSMISSION
Resolution: 4
Origin: EASTMAN KODAK COMPANY, RESEARCH LABORATORIES, ROCHESTER, N.Y.
MICROMETERS	TRANSMITTANCE
2.223	0.828
2.25802	0.826
2.29304	0.826
2.32806	0.828
2.36308	0.83
2.3981	0.828
2.43312	0.828
2.46814	0.831
2.50316	0.831
2.53819	0.835
2.57321	0.84
2.60823	0.838
2.64325	0.837
2.67827	0.837
2.71329	0.816
2.74831	0.788
2.78333	0.76
2.81835	0.727
2.85337	0.688
2.88839	0.608
2.92341	0.384
2.95843	0.069
2.99345	0.249
3.02847	0.521
3.06349	0.694
3.09851	0.731
3.13354	0.736
3.16856	0.727
3.20358	0.736
3.2386	0.734
3.27362	0.655
3.30864	0.398
3.34366	0.564
3.37868	0.622
3.4137	0.689
3.44872	0.731
3.48374	0.79
3.51876	0.807
3.55378	0.83
3.5888	0.84
3.62382	0.845
3.65884	0.845
3.69386	0.847
3.72888	0.85
3.76391	0.85
3.79893	0.85
3.83395	0.852
3.86897	0.857
3.90399	0.863
3.93901	0.857
3.97403	0.859
4.00905	0.861
4.04407	0.864
4.07909	0.863
4.11411	0.854
4.14913	0.852
4.18415	0.861
4.21917	0.864
4.25419	0.866
4.28921	0.864
4.32423	0.866
4.35926	0.863
4.39428	0.864
4.4293	0.868
4.46432	0.868
4.49934	0.868
4.53436	0.864
4.56938	0.863
4.6044	0.866
4.63942	0.863
4.67444	0.864
4.70946	0.873
4.74448	0.868
4.7795	0.864
4.81452	0.857
4.84954	0.863
4.88456	0.859
4.91958	0.861
4.95461	0.861
4.98963	0.856
5.02465	0.852
5.05967	0.85
5.09469	0.842
5.12971	0.85
5.16473	0.854
5.19975	0.859
5.23477	0.842
5.26979	0.835
5.30481	0.823
5.33983	0.84
5.37485	0.844
5.40987	0.831
5.44489	0.811
5.47991	0.804
5.51493	0.783
5.54996	0.764
5.58498	0.724
5.62	0.681
5.65502	0.526
5.69004	0.136
5.72506	0.123
5.76008	0.223
5.7951	0.008
5.83012	0.294
5.86514	0.589
5.90016	0.636
5.93518	0.639
5.9702	0.622
6.00522	0.566
6.04024	0.48
6.07526	0.188
6.11028	0.041
6.1453	0.008
6.18033	0.102
6.21535	0.23
6.25037	0.136
6.28539	0.062
6.32041	0.031
6.35543	0.11
6.39045	0.24
6.42547	0.445
6.46049	0.462
6.49551	0.438
6.53053	0.362
6.56555	0.471
6.60057	0.61
6.63559	0.623
6.67061	0.625
6.70563	0.689
6.74065	0.499
6.77568	0.512
6.8107	0.532
6.84572	0.311
6.88074	0.294
6.91576	0.525
6.95078	0.642
6.9858	0.608
7.02082	0.584
7.05584	0.717
7.09086	0.658
7.12588	0.592
7.1609	0.5
7.19592	0.381
7.23094	0.242
7.26596	0.386
7.30098	0.457
7.336	0.603
7.37103	0.433
7.40605	0.44
7.44107	0.589
7.47609	0.608
7.51111	0.556
7.54613	0.471
7.58115	0.299
7.61617	0.348
7.65119	0.346
7.68621	0.403
7.72123	0.429
7.75625	0.433
7.79127	0.337
7.82629	0.261
7.86131	0.164
7.89633	0.131
7.93135	0.22
7.96638	0.259
8.0014	0.221
8.03642	0.285
8.07144	0.367
8.10646	0.336
8.14148	0.227
8.1765	0.112
8.21152	0.072
8.24654	0.072
8.28156	0.05
8.31658	0.041
8.3516	0.041
8.38662	0.112
8.42164	0.138
8.45666	0.076
8.49168	0.045
8.5267	0.076
8.56172	0.129
8.59675	0.216
8.63177	0.343
8.66679	0.45
8.70181	0.538
8.73683	0.596
8.77185	0.62
8.80687	0.642
8.84189	0.646
8.87691	0.627
8.91193	0.561
8.94695	0.441
8.98197	0.478
9.01699	0.502
9.05201	0.409
9.08703	0.454
9.12205	0.538
9.15707	0.497
9.1921	0.395
9.22712	0.336
9.26214	0.435
9.29716	0.487
9.33218	0.603
9.3672	0.662
9.40222	0.705
9.43724	0.715
9.47226	0.715
9.50728	0.705
9.5423	0.665
9.57732	0.632
9.61234	0.584
9.64736	0.545
9.68238	0.462
9.7174	0.301
9.75242	0.199
9.78745	0.272
9.82247	0.448
9.85749	0.603
9.89251	0.679
9.92753	0.724
9.96255	0.738
9.99757	0.785
10.0326	0.793
10.0676	0.8
10.1026	0.811
10.1377	0.814
10.1727	0.828
10.2077	0.828
10.2427	0.83
10.2777	0.821
10.3128	0.819
10.3478	0.814
10.3828	0.805
10.4178	0.785
10.4528	0.771
10.4879	0.8
10.5229	0.814
10.5579	0.84
10.5929	0.842
10.6279	0.842
10.663	0.857
10.698	0.847
10.733	0.85
10.768	0.84
10.803	0.824
10.8381	0.759
10.8731	0.727
10.9081	0.785
10.9431	0.79
10.9781	0.805
11.0132	0.835
11.0482	0.85
11.0832	0.863
11.1182	0.861
11.1532	0.868
11.1883	0.856
11.2233	0.87
11.2583	0.871
11.2933	0.861
11.3284	0.864
11.3634	0.84
11.3984	0.828
11.4334	0.762
11.4684	0.682
11.5035	0.655
11.5385	0.618
11.5735	0.668
11.6085	0.743
11.6435	0.783
11.6786	0.821
11.7136	0.85
11.7486	0.842
11.7836	0.866
11.8186	0.864
11.8537	0.854
11.8887	0.876
11.9237	0.876
11.9587	0.856
11.9937	0.866
12.0288	0.854
12.0638	0.831
12.0988	0.838
12.1338	0.849
12.1688	0.831
12.2039	0.844
12.2389	0.833
12.2739	0.818
12.3089	0.824
12.3439	0.824
12.379	0.807
12.414	0.8
12.449	0.779
12.484	0.74
12.5191	0.7
12.5541	0.618
12.5891	0.589
12.6241	0.623
12.6591	0.668
12.6942	0.679
12.7292	0.674
12.7642	0.636
12.7992	0.616
12.8342	0.649
12.8693	0.703
12.9043	0.72
12.9393	0.72
12.9743	0.724
13.0093	0.731
13.0444	0.727
13.0794	0.712
13.1144	0.672
13.1494	0.577
13.1844	0.459
13.2195	0.386
13.2545	0.396
13.2895	0.447
13.3245	0.519
13.3595	0.556
13.3946	0.587
13.4296	0.603
13.4646	0.63
13.4996	0.653
13.5346	0.658
13.5697	0.66
13.6047	0.674
13.6397	0.679
13.6747	0.681
13.7098	0.674
13.7448	0.686
13.7798	0.693
13.8148	0.703
13.8498	0.719
13.8849	0.733
13.9199	0.734
13.9549	0.731
13.9899	0.727
14.0249	0.722
14.06	0.701
14.095	0.658
14.13	0.606
14.165	0.542
14.2	0.419
14.2351	0.287
14.2701	0.225
14.3051	0.303
14.3401	0.452
14.3751	0.545
14.4102	0.616
14.4452	0.63
14.4802	0.639
14.5152	0.642
14.5502	0.639
14.5853	0.622
14.6203	0.596
14.6553	0.582
14.6903	0.558
14.7253	0.533
14.7604	0.514
14.7954	0.495
14.8304	0.49
14.8654	0.485
14.9004	0.481
14.9355	0.481
14.9705	0.483
15.0055	0.461
15.0405	0.441
15.0756	0.433
15.1106	0.431
15.1456	0.429
15.1806	0.428
15.2156	0.431
15.2507	0.438
15.2857	0.445
15.3207	0.454
15.3557	0.464
15.3907	0.476
15.4258	0.487
15.4608	0.499
15.4958	0.507
15.5308	0.521
15.5658	0.538
15.6009	0.547
15.6359	0.551
15.6709	0.556
15.7059	0.571
15.7409	0.578
15.776	0.589
15.811	0.594
15.846	0.599
15.881	0.603
15.916	0.608
15.9511	0.611
15.9861	0.618
