Infrared Spectrum: 2H-1,3-OXAZINE-2-ETHANOL, 5,6-DIHYDRO-B,B,5,5-TETRAMETHYL-, CARBANILATE
Formula: C17 H24 N2 O3
CAS: 96977-69-4
Melting point: 112-113 C
Class: COBLENTZ
Instrument: Not specified, most likely a prism, grating, or hybrid spectrometer.
Sampling: TRANSMISSION
Resolution: 4
Origin: TENNESSEE EASTMAN COMPANY, RESEARCH LABORATORIES
MICROMETERS	TRANSMITTANCE
2.02	0.782
2.0599	0.782
2.09979	0.783
2.13969	0.785
2.17959	0.785
2.21949	0.788
2.25938	0.787
2.29928	0.787
2.33918	0.787
2.37907	0.787
2.41897	0.787
2.45887	0.787
2.49877	0.787
2.53866	0.787
2.57856	0.787
2.61846	0.788
2.65835	0.788
2.69825	0.788
2.73815	0.753
2.77805	0.665
2.81794	0.615
2.85784	0.575
2.89774	0.529
2.93763	0.52
2.97753	0.485
3.01743	0.316
3.05733	0.459
3.09722	0.45
3.13712	0.517
3.17702	0.612
3.21691	0.567
3.25681	0.524
3.29671	0.514
3.33661	0.271
3.3765	0.364
3.4164	0.439
3.4563	0.339
3.49619	0.64
3.53609	0.707
3.57599	0.722
3.61589	0.742
3.65578	0.752
3.69568	0.763
3.73558	0.775
3.77547	0.785
3.81537	0.792
3.85527	0.793
3.89517	0.797
3.93506	0.797
3.97496	0.798
4.01486	0.801
4.05475	0.8
4.09465	0.801
4.13455	0.803
4.17445	0.801
4.21434	0.808
4.25424	0.81
4.29414	0.81
4.33403	0.8
4.37393	0.798
4.41383	0.798
4.45373	0.801
4.49362	0.801
4.53352	0.8
4.57342	0.797
4.61331	0.798
4.65321	0.801
4.69311	0.801
4.73301	0.801
4.7729	0.801
4.8128	0.8
4.8527	0.8
4.89259	0.797
4.93249	0.792
4.97239	0.792
5.01229	0.793
5.05218	0.793
5.09208	0.78
5.13198	0.765
5.17187	0.773
5.21177	0.78
5.25167	0.78
5.29157	0.77
5.33146	0.76
5.37136	0.743
5.41126	0.753
5.45115	0.747
5.49105	0.725
5.53095	0.703
5.57085	0.678
5.61074	0.685
5.65064	0.673
5.69054	0.594
5.73043	0.302
5.77033	0.033
5.81023	0.163
5.85013	0.434
5.89002	0.477
5.92992	0.502
5.96982	0.517
6.00971	0.412
6.04961	0.227
6.08951	0.447
6.12941	0.527
6.1693	0.346
6.2092	0.169
6.2491	0.084
6.28899	0.494
6.32889	0.557
6.36879	0.352
6.40869	0.066
6.44858	0.058
6.48848	0.232
6.52838	0.43
6.56827	0.507
6.60817	0.282
6.64807	0.391
6.68797	0.437
6.72786	0.327
6.76776	0.219
6.80766	0.312
6.84755	0.394
6.88745	0.114
6.92735	0.289
6.96725	0.56
7.00714	0.608
7.04704	0.615
7.08694	0.61
7.12683	0.575
7.16673	0.432
7.20663	0.474
7.24653	0.405
7.28642	0.352
7.32632	0.324
7.36622	0.467
7.40611	0.622
7.44601	0.618
7.48591	0.562
7.52581	0.306
7.5657	0.234
7.6056	0.091
7.6455	0.297
7.68539	0.324
7.72529	0.432
7.76519	0.465
7.80509	0.459
7.84498	0.429
7.88488	0.442
7.92478	0.462
7.96467	0.329
8.00457	0.201
8.04447	0.064
8.08437	0.038
8.12426	0.046
8.16416	0.071
8.20406	0.036
8.24395	0.038
8.28385	0.159
8.32375	0.317
8.36365	0.469
8.40354	0.539
8.44344	0.497
8.48334	0.402
8.52323	0.371
8.56313	0.554
8.60303	0.585
8.64293	0.652
8.68282	0.682
8.72272	0.688
8.76262	0.687
8.80251	0.687
8.84241	0.688
8.88231	0.688
8.92221	0.675
8.9621	0.645
9.002	0.597
9.0419	0.57
9.08179	0.46
9.12169	0.247
9.16159	0.121
9.20149	0.119
9.24138	0.204
9.28128	0.274
9.32118	0.119
9.36107	0.048
9.40097	0.036
9.44087	0.064
9.48077	0.242
9.52066	0.389
9.56056	0.52
9.60046	0.549
9.64035	0.301
9.68025	0.227
9.72015	0.252
9.76005	0.379
9.79994	0.464
9.83984	0.594
9.87974	0.642
9.91963	0.655
9.95953	0.637
9.99943	0.51
10.0393	0.527
10.0792	0.346
10.1191	0.299
10.159	0.326
10.1989	0.377
10.2388	0.482
10.2787	0.534
10.3186	0.535
10.3585	0.602
10.3984	0.653
10.4383	0.667
10.4782	0.628
10.5181	0.6
10.558	0.625
10.5979	0.655
10.6378	0.678
10.6777	0.663
10.7176	0.587
10.7575	0.499
10.7974	0.364
10.8373	0.422
10.8772	0.618
10.9171	0.682
10.957	0.675
10.9969	0.67
11.0368	0.683
11.0767	0.628
11.1165	0.589
11.1564	0.663
11.1963	0.72
11.2362	0.722
11.2761	0.692
11.316	0.703
11.3559	0.742
11.3958	0.752
11.4357	0.757
11.4756	0.758
11.5155	0.758
11.5554	0.758
11.5953	0.757
11.6352	0.752
11.6751	0.738
11.715	0.698
11.7549	0.66
11.7948	0.643
11.8347	0.655
11.8746	0.673
11.9145	0.673
11.9544	0.677
11.9943	0.707
12.0342	0.73
12.0741	0.735
12.114	0.738
12.1539	0.738
12.1938	0.74
12.2337	0.738
12.2736	0.738
12.3135	0.733
12.3534	0.715
12.3933	0.677
12.4332	0.665
12.4731	0.663
12.5129	0.67
12.5528	0.69
12.5927	0.698
12.6326	0.698
12.6725	0.7
12.7124	0.7
12.7523	0.7
12.7922	0.688
12.8321	0.66
12.872	0.582
12.9119	0.434
12.9518	0.311
12.9917	0.279
13.0316	0.272
13.0715	0.244
13.1114	0.159
13.1513	0.119
13.1912	0.119
13.2311	0.169
13.271	0.209
13.3109	0.237
13.3508	0.296
13.3907	0.377
13.4306	0.427
13.4705	0.465
13.5104	0.489
13.5503	0.502
13.5902	0.51
13.6301	0.52
13.67	0.527
13.7099	0.529
13.7498	0.529
13.7897	0.529
13.8296	0.529
13.8695	0.529
13.9093	0.527
13.9492	0.517
13.9891	0.51
14.029	0.507
14.0689	0.5
14.1088	0.489
14.1487	0.48
14.1886	0.47
14.2285	0.464
14.2684	0.45
14.3083	0.422
14.3482	0.366
14.3881	0.322
14.428	0.319
14.4679	0.381
14.5078	0.479
14.5477	0.552
14.5876	0.597
14.6275	0.61
14.6674	0.615
14.7073	0.617
14.7472	0.62
14.7871	0.618
14.827	0.618
14.8669	0.62
14.9068	0.618
14.9467	0.613
14.9866	0.608
15.0265	0.607
15.0664	0.61
15.1063	0.61
15.1462	0.607
15.1861	0.605
15.226	0.6
15.2659	0.595
15.3057	0.594
15.3456	0.592
15.3855	0.584
15.4254	0.58
15.4653	0.574
15.5052	0.567
15.5451	0.56
15.585	0.554
15.6249	0.549
15.6648	0.544
15.7047	0.539
15.7446	0.532
15.7845	0.529
15.8244	0.524
15.8643	0.519
15.9042	0.51
15.9441	0.505
15.984	0.5
