Infrared Spectrum: 2-DIETHYLAMINOETHYL-4-(4'-HYDROXYPHENOXY)-3',3,5-TRIIODOPHENYLACETATE,HYDROCHLORIDE
Formula: C20 H23 Cl I3 N O4
CAS: 96972-64-4
State: SOLID (OIL MULL)
Class: COBLENTZ III
Instrument: PERKIN-ELMER 21 (GRATING)
Instrument parameters: NaCl PRISM
Sampling: TRANSMISSION
Resolution: 2
Origin: SMITH KLINE & FRENCH LABS.
1/CM	TRANSMITTANCE
653	0.7237
662	0.7569
671	0.7661
680	0.7394
689	0.6229
698	0.7416
707	0.6084
716	0.7892
725	0.8258
734	0.8327
743	0.8652
752	0.8713
761	0.8763
770	0.8365
779	0.7202
788	0.7868
797	0.8435
806	0.8479
815	0.7088
824	0.6389
833	0.8919
842	0.8311
851	0.5818
860	0.8214
869	0.7705
878	0.8469
887	0.7205
896	0.835
905	0.8555
914	0.796
923	0.852
932	0.8174
941	0.8164
950	0.7759
959	0.6947
968	0.8269
977	0.8438
986	0.8172
995	0.6936
1004	0.6523
1013	0.6312
1022	0.7095
1031	0.7636
1040	0.7042
1049	0.7415
1058	0.7697
1067	0.78
1076	0.7897
1085	0.6712
1094	0.7922
1103	0.7866
1112	0.7506
1121	0.7078
1130	0.6964
1139	0.6057
1148	0.5882
1157	0.6237
1166	0.4274
1175	0.2573
1184	0.7122
1193	0.6976
1202	0.6625
1211	0.5534
1220	0.5591
1229	0.3374
1238	0.237
1247	0.3307
1256	0.4245
1265	0.4079
1274	0.3653
1283	0.5905
1292	0.6958
1301	0.6607
1310	0.6799
1319	0.7066
1328	0.6477
1337	0.5491
1346	0.5582
1355	0.5774
1364	0.5456
1373	0.4456
1382	0.4709
1391	0.4338
1400	0.2727
1409	0.4267
1418	0.5341
1427	0.4217
1436	0.3471
1445	0.4086
1454	0.4041
1463	0.4204
1472	0.5722
1481	0.5822
1490	0.4295
1499	0.5172
1508	0.7291
1517	0.7424
1526	0.7239
1535	0.6644
1544	0.7813
1553	0.7711
1562	0.7383
1571	0.6507
1580	0.7885
1589	0.7866
1598	0.7856
1607	0.7896
1616	0.7898
1625	0.7752
1634	0.7657
1643	0.751
1652	0.7494
1661	0.7476
1670	0.7427
1679	0.7386
1688	0.6718
1697	0.5804
1706	0.4059
1715	0.2149
1724	0.4646
1733	0.651
1742	0.7373
1751	0.7716
1760	0.8028
1769	0.8256
1778	0.8332
1787	0.8498
1796	0.8501
1805	0.8502
1814	0.8487
1823	0.8459
1832	0.8426
1841	0.8381
1850	0.835
1859	0.832
1868	0.8291
1877	0.825
1886	0.8215
1895	0.8189
1904	0.8174
1913	0.8162
1922	0.8149
1931	0.8133
1940	0.8116
1949	0.81
1958	0.8082
1967	0.8077
1976	0.8075
1985	0.8072
1994	0.8063
2003	0.8053
2012	0.8042
2021	0.8032
2030	0.8012
2039	0.7989
2048	0.7948
2057	0.7906
2066	0.7873
2075	0.7851
2084	0.7837
2093	0.7833
2102	0.7834
2111	0.7837
2120	0.7835
2129	0.7829
2138	0.7817
2147	0.7797
2156	0.7774
2165	0.7749
2174	0.7719
2183	0.7657
2192	0.7578
2201	0.7536
2210	0.7521
2219	0.7504
2228	0.7482
2237	0.7472
2246	0.7529
2255	0.7556
2264	0.7341
2273	0.7016
2282	0.6959
2291	0.6908
2300	0.681
2309	0.6639
2318	0.6495
2327	0.6396
2336	0.6335
2345	0.6296
2354	0.6276
2363	0.6226
2372	0.6125
2381	0.6003
2390	0.5835
2399	0.5609
2408	0.5275
2417	0.5066
2426	0.5
2435	0.482
2444	0.4616
2453	0.4402
2462	0.4411
2471	0.45
2480	0.4966
2489	0.5182
2498	0.51
2507	0.4798
2516	0.4548
2525	0.4378
2534	0.4258
2543	0.4148
2552	0.4033
2561	0.4033
2570	0.4273
2579	0.4581
2588	0.4895
2597	0.5281
2606	0.5581
2615	0.5998
2624	0.6149
2633	0.6188
2642	0.6199
2651	0.6219
2660	0.6305
2669	0.6312
2678	0.6299
2687	0.6269
2696	0.6264
2705	0.625
2714	0.6198
2723	0.6158
2732	0.6104
2741	0.6013
2750	0.5848
2759	0.5613
2768	0.5375
2777	0.5172
2786	0.4928
2795	0.4196
2804	0.3439
2813	0.2879
2822	0.2627
2831	0.2524
2840	0.248
2849	0.2472
2858	0.2461
2867	0.2402
2876	0.2231
2885	0.2098
2894	0.2062
2903	0.2091
2912	0.2208
2921	0.2308
2930	0.2327
2939	0.2727
2948	0.307
2957	0.313
2966	0.3139
2975	0.3141
2984	0.3153
2993	0.3344
3002	0.3562
3011	0.3779
3020	0.3976
3029	0.4192
3038	0.443
3047	0.4677
3056	0.4886
3065	0.5165
3074	0.5631
3083	0.5909
3092	0.6013
3101	0.6066
3110	0.6107
3119	0.6144
3128	0.6176
3137	0.6201
3146	0.6213
3155	0.6218
3164	0.6225
3173	0.624
3182	0.6274
3191	0.6321
3200	0.6373
3209	0.6411
3218	0.6448
3227	0.6482
3236	0.6504
3245	0.6523
3254	0.6526
3263	0.6528
3272	0.6528
3281	0.6523
3290	0.652
3299	0.6535
3308	0.6558
3317	0.6603
3326	0.6636
3335	0.6639
3344	0.6638
3353	0.6636
3362	0.6634
3371	0.6631
3380	0.6628
3389	0.6625
3398	0.6619
3407	0.6614
3416	0.661
3425	0.6611
3434	0.6611
3443	0.6614
3452	0.6622
3461	0.6628
3470	0.66
3479	0.6531
3488	0.6471
3497	0.6415
3506	0.6374
3515	0.6356
3524	0.635
3533	0.6344
3542	0.6339
3551	0.6333
3560	0.6325
3569	0.6317
3578	0.631
3587	0.6302
3596	0.6295
3605	0.6288
3614	0.6282
3623	0.6275
3632	0.6268
3641	0.6261
3650	0.6255
3659	0.6249
3668	0.6243
3677	0.6237
3686	0.6231
3695	0.6225
3704	0.6219
3713	0.6213
3722	0.6207
3731	0.6202
3740	0.6195
3749	0.6188
3758	0.6169
3767	0.6149
3776	0.6119
3785	0.6081
3794	0.605
3803	0.6026
3812	0.602
3821	0.6017
3830	0.6037
3839	0.6081
3848	0.6121
3857	0.6128
3866	0.6131
3875	0.6131
3884	0.6124
3893	0.6111
3902	0.6071
3911	0.5984
3920	0.59
3929	0.5835
3938	0.5776
3947	0.5752
3956	0.5755
3965	0.577
3974	0.5788
3983	0.5786
3992	0.5774
