Infrared Spectrum: 2,4-DINITROANILINE
Formula: C6 H5 N3 O4
CAS: 97-02-9
State: SOLID (SPLIT MULL)
Melting point: 177 C
Class: COBLENTZ III
Instrument: DOW KBr FOREPRISM-GRATING
Instrument parameters: BLAZED AT 3.5, 12.0, 20.0 MICRONS AND CHANGED AT 5.0, 7.5, 14.9 MICRONS
Sampling: TRANSMISSION
Resolution: 2
Origin: DOW CHEMICAL COMPANY
1/CM	TRANSMITTANCE
411.258	0.75
419.874	0.787
428.489	0.818
437.105	0.844
445.721	0.858
454.337	0.866
462.952	0.869
471.568	0.869
480.184	0.868
488.8	0.865
497.415	0.852
506.031	0.821
514.647	0.668
523.263	0.72
531.878	0.81
540.494	0.783
549.11	0.735
557.726	0.672
566.341	0.587
574.957	0.534
583.573	0.548
592.189	0.596
600.804	0.686
609.42	0.78
618.036	0.831
626.651	0.838
635.267	0.604
643.883	0.893
652.499	0.903
661.114	0.912
669.73	0.92
678.346	0.923
686.962	0.892
695.577	0.747
704.193	0.864
712.809	0.672
721.425	0.6891
730.04	0.92
738.656	0.9
747.272	0.446
755.888	0.946
764.503	0.943
773.119	0.961
781.735	0.97
790.351	0.971
798.966	0.961
807.582	0.951
816.198	0.916
824.814	0.885
833.429	0.672
842.045	0.65
850.661	0.946
859.276	0.95
867.892	0.943
876.508	0.934
885.124	0.924
893.739	0.909
902.355	0.891
910.971	0.821
919.587	0.606
928.202	0.6381
936.818	0.892
945.434	0.883
954.05	0.861
962.665	0.849
971.281	0.829
979.897	0.838
988.513	0.822
997.128	0.802
1005.74	0.752
1014.36	0.673
1022.98	0.756
1031.59	0.763
1040.21	0.743
1048.82	0.684
1057.44	0.477
1066.05	0.373
1074.67	0.692
1083.29	0.682
1091.9	0.655
1100.52	0.61
1109.13	0.528
1117.75	0.434
1126.36	0.385
1134.98	0.407
1143.6	0.633
1152.21	0.622
1160.83	0.563
1169.44	0.637
1178.06	0.615
1186.67	0.599
1195.29	0.576
1203.91	0.559
1212.52	0.548
1221.14	0.521
1229.75	0.465
1238.37	0.395
1246.98	0.27
1255.6	0.146
1264.22	0.181
1272.83	0.201
1281.45	0.221
1290.06	0.231
1298.68	0.26
1307.29	0.264
1315.91	0.254
1324.53	0.147
1333.14	0.075
1341.76	0.145
1350.37	0.396
1358.99	0.5491
1367.61	0.833
1376.22	0.786
1384.84	0.5869
1393.45	0.754
1402.07	0.822
1410.68	0.719
1419.3	0.534
1427.92	0.5121
1436.53	0.806
1445.15	0.83
1453.76	0.81
1462.38	0.719
1470.99	0.625
1479.61	0.615
1488.23	0.3748
1496.84	0.248
1505.46	0.45
1514.07	0.419
1522.69	0.3681
1531.3	0.814
1539.92	0.83
1548.54	0.802
1557.15	0.719
1565.77	0.598
1574.38	0.489
1583	0.194
1591.61	0.478
1600.23	0.424
1608.85	0.331
1617.46	0.229
1626.08	0.083
1634.69	0.123
1643.31	0.3801
1651.92	0.756
1660.54	0.916
1669.16	0.997
1677.77	1.013
1686.39	1.014
1695	1.01
1703.62	1.014
1712.23	1.014
1720.85	1.006
1729.47	0.995
1738.08	0.986
1746.7	0.979
1755.31	0.97
1763.93	0.961
1772.54	0.954
1781.16	0.947
1789.78	0.936
1798.39	0.919
1807.01	0.916
1815.62	0.909
1824.24	0.905
1832.86	0.905
1841.47	0.901
1850.09	0.897
1858.7	0.893
1867.32	0.891
1875.93	0.884
1884.55	0.881
1893.17	0.88
1901.78	0.872
1910.4	0.869
1919.01	0.864
1927.63	0.854
1936.24	0.844
1944.86	0.841
1953.48	0.836
1962.09	0.837
1970.71	0.836
1979.32	0.83
1987.94	0.821
1996.55	0.821
2005.17	0.818
2013.79	0.815
2022.4	0.8085
2031.02	0.801
2039.63	0.7987
2048.25	0.7947
2056.86	0.7906
2065.48	0.786
2074.1	0.784
2082.71	0.782
2091.33	0.7783
2099.94	0.775
2108.56	0.7684
2117.17	0.764
2125.79	0.7591
2134.41	0.7521
2143.02	0.748
2151.64	0.7428
2160.25	0.7369
2168.87	0.7306
2177.48	0.7237
2186.1	0.7157
2194.72	0.711
2203.33	0.711
2211.95	0.709
2220.56	0.7054
2229.18	0.7004
2237.79	0.6946
2246.41	0.6857
2255.03	0.6762
2263.64	0.674
2272.26	0.673
2280.87	0.672
2289.49	0.6659
2298.1	0.6606
2306.72	0.6526
2315.34	0.646
2323.95	0.6427
2332.57	0.639
2341.18	0.638
2349.8	0.635
2358.42	0.635
2367.03	0.634
2375.65	0.634
2384.26	0.6332
2392.88	0.633
2401.49	0.631
2410.11	0.631
2418.73	0.631
2427.34	0.63
2435.96	0.627
2444.57	0.6228
2453.19	0.6222
2461.8	0.626
2470.42	0.626
2479.04	0.6241
2487.65	0.622
2496.27	0.6184
2504.88	0.6154
2513.5	0.615
2522.11	0.615
2530.73	0.615
2539.35	0.6123
2547.96	0.611
2556.58	0.608
2565.19	0.6059
2573.81	0.6029
2582.42	0.5998
2591.04	0.5958
2599.66	0.5917
2608.27	0.59
2616.89	0.588
2625.5	0.585
2634.12	0.581
2642.73	0.58
2651.35	0.58
2659.97	0.577
2668.58	0.5752
2677.2	0.572
2685.81	0.569
2694.43	0.567
2703.04	0.564
2711.66	0.5599
2720.28	0.556
2728.89	0.5528
2737.51	0.5477
2746.12	0.5437
2754.74	0.54
2763.35	0.538
2771.97	0.54
2780.59	0.54
2789.2	0.538
2797.82	0.536
2806.43	0.5322
2815.05	0.529
2823.67	0.526
2832.28	0.522
2840.9	0.518
2849.51	0.516
2858.13	0.514
2866.74	0.5144
2875.36	0.516
2883.98	0.514
2892.59	0.51
2901.21	0.506
2909.82	0.503
2918.44	0.4988
2927.05	0.4957
2935.67	0.4933
2944.29	0.493
2952.9	0.491
2961.52	0.49
2970.13	0.49
2978.75	0.49
2987.36	0.487
2995.98	0.483
3004.6	0.4806
3013.21	0.477
3021.83	0.4737
3030.44	0.47
3039.06	0.466
3047.67	0.462
3056.29	0.4584
3064.91	0.456
3073.52	0.4526
3082.14	0.4462
3090.75	0.4382
3099.37	0.4271
3107.98	0.4228
3116.6	0.439
3125.22	0.4471
3133.83	0.4498
3142.45	0.444
3151.06	0.4375
3159.68	0.4274
3168.29	0.4169
3176.91	0.4057
3185.53	0.3955
3194.14	0.3879
3202.76	0.387
3211.37	0.385
3219.99	0.385
3228.6	0.385
3237.22	0.385
3245.84	0.383
3254.45	0.379
3263.07	0.3699
3271.68	0.3607
3280.3	0.3475
3288.92	0.3333
3297.53	0.3066
3306.15	0.2624
3314.76	0.2206
3323.38	0.1722
3331.99	0.0756
3340.61	0.061
3349.23	0.1958
3357.84	0.428
3366.46	0.5314
3375.07	0.5332
3383.69	0.5133
3392.3	0.4951
3400.92	0.4779
3409.54	0.4574
3418.15	0.4259
3426.77	0.3816
3435.38	0.3167
3444	0.2125
3452.61	0.163
3461.23	0.3065
3469.85	0.4691
3478.46	0.5068
3487.08	0.512
3495.69	0.512
3504.31	0.5092
3512.92	0.5002
3521.54	0.4931
3530.16	0.486
3538.77	0.481
3547.39	0.477
3556	0.473
3564.62	0.4698
3573.23	0.4657
3581.85	0.4617
3590.47	0.4572
3599.08	0.454
3607.7	0.451
3616.31	0.45
3624.93	0.448
3633.54	0.4463
3642.16	0.444
3650.78	0.4422
3659.39	0.44
3668.01	0.438
3676.62	0.435
3685.24	0.4338
3693.85	0.431
3702.47	0.43
3711.09	0.428
3719.7	0.426
3728.32	0.424
3736.93	0.4226
3745.55	0.42
3754.17	0.418
3762.78	0.418
3771.4	0.416
3780.01	0.415
3788.63	0.413
3797.24	0.412
