Infrared Spectrum: Dichlofenthion
Formula: C 10 H 13 Cl 2 O 3 P S
CAS: 97-17-6
State: gas
Instrument: HP-GC/MS/IRD
Origin: NIST Mass Spectrometry Data Center
1/CM	ABSORBANCE
550	0.0063568
562	0.006987
574	0.001233
586	2.74e-05
598	0.0011782
610	0.0029592
622	0.0030962
634	0.002603
646	0.0052608
658	0.0098092
670	0.0037264
682	0.006439
694	0.0233996
706	0.0182758
718	0.0170702
730	0.0081652
742	0.0061376
754	0.007398
766	0.0121656
778	0.025071
790	0.0479774
802	0.0912968
814	0.143439
826	0.14859
838	0.108833
850	0.0381408
862	0.0295646
874	0.0259204
886	0.0226598
898	0.0326334
910	0.0694042
922	0.157002
934	0.152563
946	0.112943
958	0.112559
970	0.0976536
982	0.0583346
994	0.0395656
1006	0.051512
1018	0.106065
1030	0.215063
1042	0.274
1054	0.242737
1066	0.15007
1078	0.0972974
1090	0.0781996
1102	0.0792682
1114	0.038223
1126	0.0282494
1138	0.028222
1150	0.0281398
1162	0.0238654
1174	0.0206596
1186	0.0164948
1198	0.013426
1210	0.017673
1222	0.041785
1234	0.0808574
1246	0.0629378
1258	0.090831
1270	0.0367982
1282	0.015481
1294	0.0098914
1306	0.0075624
1318	0.0052882
1330	0.0040278
1342	0.00411
1354	0.0056444
1366	0.0095626
1378	0.0168236
1390	0.0256464
1402	0.0169332
1414	0.0121108
1426	0.0200842
1438	0.0144124
1450	0.0231804
1462	0.0555124
1474	0.172921
1486	0.103271
1498	0.036031
1510	0.016851
1522	0.0099188
1534	0.0066856
1546	0.0051512
1558	0.006028
1570	0.0096996
1582	0.011234
1594	0.0048772
1606	0.0025208
1618	0.0022742
1630	0.0024934
1642	0.0024386
1654	0.0017536
1666	0.0012878
1678	0.001096
1690	0.0011234
1702	0.001233
1714	0.0018084
1726	0.003425
1738	0.0031236
1750	0.0023564
1762	0.002055
1774	0.0015892
1786	0.0013426
1798	0.0014248
1810	0.0018906
1822	0.0024112
1834	0.0030962
1846	0.0034798
1858	0.003836
1870	0.0038086
1882	0.0029592
1894	0.0018632
1906	0.001233
1918	0.0010686
1930	0.0010412
1942	0.001096
1954	0.0009864
1966	0.0007672
1978	0.0005206
1990	0.0002192
2002	8.22e-05
2014	2.74e-05
2026	5.48e-05
2038	0.0001096
2050	0.0001918
2062	0.000274
2074	0.0003288
2086	0.0003836
2098	0.000274
2110	0.0002192
2122	0.000137
2134	0.0001644
2146	0.0002466
2158	0.000274
2170	0.000411
2182	0.0004658
2194	0.0004932
2206	0.0002466
2218	5.48e-05
2230	0
2242	2.74e-05
2254	2.74e-05
2266	0.000137
2278	0.000274
2290	0.000411
2302	0.000411
2314	0.0004658
2326	0.0003562
2338	0.000274
2350	0.0003014
2362	0.0001918
2374	0.0001644
2386	0.0001918
2398	0.0002192
2410	0.0002192
2422	0.0001918
2434	0.0003562
2446	0.0005754
2458	0.0007398
2470	0.000822
2482	0.0008768
2494	0.0007946
2506	0.0008494
2518	0.0007398
2530	0.0004932
2542	0.000274
2554	0.0001644
2566	5.48e-05
2578	8.22e-05
2590	0.0001096
2602	0.000137
2614	0.0001644
2626	0.000137
2638	0.000137
2650	0.000137
2662	0.0001096
2674	0.000137
2686	0.0001918
2698	0.0002192
2710	0.0003836
2722	0.000685
2734	0.0009042
2746	0.0008494
2758	0.0008494
2770	0.001096
2782	0.0012604
2794	0.0013152
2806	0.0015618
2818	0.0019728
2830	0.0021098
2842	0.0023016
2854	0.00274
2866	0.0042196
2878	0.0069322
2890	0.0082748
2902	0.0102202
2914	0.0139466
2926	0.0142206
2938	0.0239202
2950	0.0231256
2962	0.018358
2974	0.0260848
2986	0.0407986
2998	0.0329622
3010	0.0180292
3022	0.010823
3034	0.0063294
3046	0.003836
3058	0.002603
3070	0.0021372
3082	0.0022194
3094	0.0016714
3106	0.0013152
3118	0.001096
3130	0.000959
3142	0.0009042
3154	0.0007946
3166	0.0006302
3178	0.0006302
3190	0.000548
3202	0.0005206
3214	0.0005754
3226	0.0004932
3238	0.000411
3250	0.0003014
3262	0.0001644
3274	0.000137
3286	0.000137
3298	0.0001644
3310	2.74e-05
3322	0.0001096
3334	5.48e-05
3346	8.22e-05
3358	0.0001096
3370	0.0001096
3382	5.48e-05
3394	8.22e-05
3406	8.22e-05
3418	5.48e-05
3430	8.22e-05
3442	8.22e-05
3454	5.48e-05
3466	5.48e-05
3478	8.22e-05
3490	5.48e-05
3502	8.22e-05
3514	8.22e-05
3526	8.22e-05
3538	8.22e-05
3550	5.48e-05
3562	8.22e-05
3574	8.22e-05
3586	0.0001096
3598	0.0001644
3610	2.74e-05
3622	0.0001096
3634	5.48e-05
3646	8.22e-05
3658	8.22e-05
3670	2.74e-05
3682	0.0001096
3694	0.0001918
3706	0.0001096
3718	0.0002192
3730	0.0002466
3742	0.0003288
3754	0.0003288
3766	0.0003288
3778	0.000274
3790	0.000274
3802	0.0001644
3814	0.0001096
3826	0.000137
3838	0.0001918
