Infrared Spectrum: ETHYLENEDIAMINE, N,N,N'-TRIISOPROPYL-
Formula: C11 H26 N2
CAS: 97-13-2
State: SOLUTION (10% CCl4 FOR 3800-400 CM^-^1) VS SOLVENT
Class: COBLENTZ III
Instrument: BECKMAN IR-9 (GRATING)
Instrument parameters: ORDER CHANGES: 670, 1200, 2000 CM^-^1
Sampling: TRANSMISSION
Path length: 0.011 CM, 0.011 CM
Resolution: 2
Origin: DOW CHEMICAL COMPANY
1/CM	TRANSMITTANCE
401	0.7851
410	0.8014
419	0.8117
428	0.8161
437	0.8121
446	0.8014
455	0.7871
464	0.7957
473	0.8084
482	0.7692
491	0.7376
500	0.7593
509	0.7467
518	0.7375
527	0.7546
536	0.795
545	0.7928
554	0.7691
563	0.7657
572	0.7637
581	0.7165
590	0.788
599	0.8382
608	0.856
617	0.8614
626	0.8643
635	0.8593
644	0.8501
653	0.8384
662	0.8204
671	0.7931
680	0.7288
689	0.6428
698	0.6775
707	0.6825
716	0.6792
725	0.7045
734	0.7378
743	0.7518
752	0.7576
761	0.7618
770	0.766
779	0.7701
788	0.7756
797	0.7798
806	0.7808
815	0.8087
824	0.8874
833	0.7811
842	0.7326
851	0.7601
860	0.826
869	0.8255
878	0.7469
887	0.7037
896	0.8057
905	0.847
914	0.8391
923	0.8055
932	0.8265
941	0.795
950	0.74
959	0.8137
968	0.8006
977	0.7275
986	0.5832
995	0.7271
1004	0.813
1013	0.8488
1022	0.8294
1031	0.8015
1040	0.7633
1049	0.7015
1058	0.5259
1067	0.6314
1076	0.6665
1085	0.6185
1094	0.5378
1103	0.5806
1112	0.5318
1121	0.2996
1130	0.3728
1139	0.4056
1148	0.3795
1157	0.3048
1166	0.3564
1175	0.2926
1184	0.2192
1193	0.4284
1202	0.4415
1211	0.271
1220	0.5479
1229	0.6598
1238	0.5544
1247	0.4787
1256	0.6715
1265	0.7505
1274	0.7056
1283	0.5765
1292	0.6761
1301	0.7004
1310	0.6293
1319	0.5092
1328	0.5145
1337	0.4192
1346	0.5722
1355	0.5017
1364	0.1341
1373	0.34
1382	0.1425
1391	0.2654
1400	0.5152
1409	0.6751
1418	0.7076
1427	0.6395
1436	0.4676
1445	0.4186
1454	0.3809
1463	0.2706
1472	0.1895
1481	0.4671
1490	0.6887
1499	0.7606
1508	0.7996
1517	0.8285
1526	0.8475
1535	0.8667
1544	0.8841
1553	0.8935
1562	0.8923
1571	0.8904
1580	0.8828
1589	0.8798
1598	0.882
1607	0.868
1616	0.8566
1625	0.8471
1634	0.8389
1643	0.8374
1652	0.8355
1661	0.8171
1670	0.7758
1679	0.7515
1688	0.7961
1697	0.8297
1706	0.844
1715	0.8564
1724	0.8654
1733	0.8696
1742	0.8724
1751	0.8743
1760	0.8752
1769	0.877
1778	0.878
1787	0.8767
1796	0.8691
1805	0.8696
1814	0.872
1823	0.874
1832	0.8792
1841	0.8847
1850	0.885
1859	0.8802
1868	0.8771
1877	0.8768
1886	0.8774
1895	0.8781
1904	0.8798
1913	0.8833
1922	0.8839
1931	0.8805
1940	0.8848
1949	0.8864
1958	0.8883
1967	0.8894
1976	0.8894
1985	0.8907
1994	0.891
2003	0.891
2012	0.8906
2021	0.8902
2030	0.8898
2039	0.8892
2048	0.8887
2057	0.8885
2066	0.8884
2075	0.8883
2084	0.8886
2093	0.8891
2102	0.8898
2111	0.8903
2120	0.8897
2129	0.8889
2138	0.8882
2147	0.8875
2156	0.8867
2165	0.8856
2174	0.8845
2183	0.8835
2192	0.8825
2201	0.8815
2210	0.8801
2219	0.8794
2228	0.8791
2237	0.8785
2246	0.878
2255	0.8774
2264	0.877
2273	0.8758
2282	0.877
2291	0.8813
2300	0.8825
2309	0.8814
2318	0.8799
2327	0.8783
2336	0.8765
2345	0.8748
2354	0.8725
2363	0.8702
2372	0.8685
2381	0.8681
2390	0.8718
2399	0.8751
2408	0.8736
2417	0.8718
2426	0.8695
2435	0.8671
2444	0.8646
2453	0.8625
2462	0.8608
2471	0.8592
2480	0.8587
2489	0.862
2498	0.8642
2507	0.8618
2516	0.8594
2525	0.8568
2534	0.8546
2543	0.8525
2552	0.8516
2561	0.8503
2570	0.8452
2579	0.8314
2588	0.81
2597	0.7815
2606	0.733
2615	0.71
2624	0.716
2633	0.7592
2642	0.7771
2651	0.7762
2660	0.7698
2669	0.7599
2678	0.758
2687	0.7551
2696	0.7297
2705	0.6967
2714	0.6905
2723	0.6864
2732	0.6833
2741	0.6797
2750	0.6665
2759	0.5627
2768	0.5094
2777	0.4459
2786	0.4162
2795	0.3868
2804	0.3382
2813	0.2884
2822	0.2324
2831	0.2267
2840	0.2434
2849	0.2947
2858	0.3312
2867	0.2237
2876	0.1758
2885	0.1804
2894	0.1912
2903	0.195
2912	0.1967
2921	0.1831
2930	0.1381
2939	0.0836
2948	0.0976
2957	0.0841
2966	0.0171
2975	0.0104
2984	0.0138
2993	0.2707
3002	0.5388
3011	0.6617
3020	0.7137
3029	0.7453
3038	0.7699
3047	0.7886
3056	0.7992
3065	0.8067
3074	0.813
3083	0.8158
3092	0.8183
3101	0.82
3110	0.8199
3119	0.819
3128	0.8168
3137	0.8139
3146	0.8107
3155	0.8075
3164	0.8034
3173	0.7988
3182	0.7961
3191	0.7983
3200	0.8018
3209	0.8058
3218	0.8117
3227	0.8168
3236	0.8192
3245	0.8191
3254	0.8168
3263	0.8048
3272	0.7891
3281	0.77
3290	0.7445
3299	0.7054
3308	0.7021
3317	0.7518
3326	0.7861
3335	0.7991
3344	0.8086
3353	0.8162
3362	0.8215
3371	0.826
3380	0.8286
3389	0.8309
3398	0.8332
3407	0.8352
3416	0.8368
3425	0.8384
3434	0.839
3443	0.84
3452	0.8411
3461	0.8423
3470	0.8445
3479	0.8468
3488	0.8495
3497	0.8524
3506	0.8548
3515	0.8571
3524	0.8596
3533	0.8618
3542	0.8644
3551	0.8667
3560	0.8691
3569	0.8713
3578	0.8735
3587	0.8754
3596	0.877
3605	0.8785
3614	0.88
3623	0.8821
3632	0.8849
3641	0.886
3650	0.8863
3659	0.8811
3668	0.8656
3677	0.8387
3686	0.8509
3695	0.8716
3704	0.8792
3713	0.88
3722	0.8847
3731	0.8859
3740	0.8864
3749	0.8868
3758	0.8871
3767	0.8875
3776	0.8877
3785	0.8878
3794	0.8871
