Infrared Spectrum: Phenol], 2,2'-thiobis[4-chloro-
Formula: C12 H8 Cl2 O2 S
CAS: 97-24-5
State: SOLID (OIL MULL)
Class: COBLENTZ
Instrument: PERKIN-ELMER 21 (GRATING)
Instrument parameters: NaCl PRISM
Sampling: TRANSMISSION
Resolution: 2
Origin: SMITH KLINE & FRENCH LABS.
1/CM	TRANSMITTANCE
679	0.8085
688	0.8086
697	0.7833
706	0.6725
715	0.6558
724	0.6885
733	0.8307
742	0.8659
751	0.8866
760	0.8889
769	0.8974
778	0.9142
787	0.9218
796	0.908
805	0.8744
814	0.5429
823	0.5199
832	0.8893
841	0.8979
850	0.8856
859	0.9032
868	0.8972
877	0.787
886	0.5977
895	0.8879
904	0.8982
913	0.8883
922	0.8792
931	0.8738
940	0.8579
949	0.8576
958	0.8543
967	0.8486
976	0.8575
985	0.8538
994	0.8538
1003	0.8482
1012	0.8443
1021	0.8405
1030	0.8352
1039	0.8226
1048	0.8
1057	0.8043
1066	0.8108
1075	0.7689
1084	0.6793
1093	0.6746
1102	0.578
1111	0.8017
1120	0.8072
1129	0.76
1138	0.7045
1147	0.7515
1156	0.7255
1165	0.6884
1174	0.651
1183	0.5944
1192	0.4923
1201	0.3968
1210	0.4326
1219	0.5345
1228	0.5297
1237	0.6347
1246	0.6575
1255	0.6857
1264	0.4206
1273	0.5568
1282	0.8348
1291	0.8271
1300	0.8029
1309	0.7539
1318	0.6462
1327	0.5351
1336	0.4625
1345	0.6443
1354	0.7147
1363	0.6317
1372	0.4705
1381	0.4331
1390	0.3439
1399	0.6216
1408	0.7725
1417	0.7769
1426	0.7244
1435	0.5679
1444	0.4063
1453	0.2908
1462	0.2843
1471	0.4679
1480	0.5456
1489	0.6309
1498	0.758
1507	0.8887
1516	0.9056
1525	0.9129
1534	0.9031
1543	0.8884
1552	0.8619
1561	0.8182
1570	0.7712
1579	0.7932
1588	0.9017
1597	0.9012
1606	0.92
1615	0.9246
1624	0.9109
1633	0.8869
1642	0.8874
1651	0.9064
1660	0.9032
1669	0.8967
1678	0.8884
1687	0.8779
1696	0.8798
1705	0.8969
1714	0.9032
1723	0.9004
1732	0.9
1741	0.8941
1750	0.8737
1759	0.877
1768	0.8957
1777	0.899
1786	0.9011
1795	0.9007
1804	0.899
1813	0.8963
1822	0.8933
1831	0.8901
1840	0.8866
1849	0.8821
1858	0.8775
1867	0.8646
1876	0.8515
1885	0.8715
1894	0.8791
1903	0.8779
1912	0.8764
1921	0.8751
1930	0.8739
1939	0.8723
1948	0.8704
1957	0.8673
1966	0.8649
1975	0.8635
1984	0.8622
1993	0.8672
2002	0.8668
2011	0.8643
2020	0.8611
2029	0.8586
2038	0.8575
2047	0.8564
2056	0.8552
2065	0.8536
2074	0.8521
2083	0.8505
2092	0.8493
2101	0.8479
2110	0.8467
2119	0.8454
2128	0.8441
2137	0.8433
2146	0.8425
2155	0.8418
2164	0.841
2173	0.8397
2182	0.8385
2191	0.8373
2200	0.8361
2209	0.8348
2218	0.8328
2227	0.8306
2236	0.8285
2245	0.8264
2254	0.8243
2263	0.8219
2272	0.8184
2281	0.8149
2290	0.8114
2299	0.8079
2308	0.8037
2317	0.7995
2326	0.7974
2335	0.7977
2344	0.8051
2353	0.8088
2362	0.8068
2371	0.8028
2380	0.7993
2389	0.7966
2398	0.795
2407	0.7936
2416	0.7925
2425	0.7912
2434	0.7898
2443	0.7883
2452	0.7869
2461	0.7842
2470	0.7811
2479	0.778
2488	0.7749
2497	0.772
2506	0.7691
2515	0.7664
2524	0.7676
2533	0.7684
2542	0.7681
2551	0.7663
2560	0.7641
2569	0.7611
2578	0.7579
2587	0.7548
2596	0.7517
2605	0.7489
2614	0.7462
2623	0.7435
2632	0.743
2641	0.7428
2650	0.7423
2659	0.7402
2668	0.7379
2677	0.7304
2686	0.7291
2695	0.7284
2704	0.7302
2713	0.7325
2722	0.7352
2731	0.7349
2740	0.7275
2749	0.7144
2758	0.7012
2767	0.6865
2776	0.6647
2785	0.6217
2794	0.5124
2803	0.4154
2812	0.3191
2821	0.2601
2830	0.2555
2839	0.2582
2848	0.2591
2857	0.2108
2866	0.1656
2875	0.1436
2884	0.1359
2893	0.1371
2902	0.1474
2911	0.1584
2920	0.2015
2929	0.2555
2938	0.3264
2947	0.4428
2956	0.5096
2965	0.5431
2974	0.5654
2983	0.578
2992	0.5809
3001	0.5817
3010	0.5814
3019	0.5811
3028	0.5813
3037	0.5841
3046	0.5892
3055	0.5911
3064	0.59
3073	0.5884
3082	0.582
3091	0.5749
3100	0.5677
3109	0.5604
3118	0.5533
3127	0.5462
3136	0.5392
3145	0.5321
3154	0.5211
3163	0.501
3172	0.4833
3181	0.4678
3190	0.4505
3199	0.4347
3208	0.4194
3217	0.4045
3226	0.3897
3235	0.3733
3244	0.3563
3253	0.3432
3262	0.3262
3271	0.3131
3280	0.3098
3289	0.3127
3298	0.3207
3307	0.3299
3316	0.3436
3325	0.3976
3334	0.4514
3343	0.5065
3352	0.5487
3361	0.5691
3370	0.5843
3379	0.6011
3388	0.6214
3397	0.6396
3406	0.6489
3415	0.658
3424	0.6701
3433	0.6838
3442	0.6945
3451	0.7003
3460	0.7027
3469	0.7038
3478	0.7037
3487	0.7033
3496	0.7017
3505	0.7
3514	0.698
3523	0.6959
3532	0.6932
3541	0.6905
3550	0.6878
3559	0.6849
3568	0.682
3577	0.6792
3586	0.6764
3595	0.6738
3604	0.6713
3613	0.6688
3622	0.6663
3631	0.6638
3640	0.6613
3649	0.659
3658	0.6571
3667	0.6552
3676	0.6533
3685	0.6515
3694	0.6497
3703	0.6479
3712	0.6461
3721	0.6443
3730	0.6425
3739	0.6409
3748	0.6394
3757	0.6378
3766	0.6362
3775	0.6346
3784	0.6331
3793	0.6316
3802	0.63
3811	0.6284
3820	0.627
3829	0.6256
3838	0.6244
3847	0.6233
3856	0.6221
3865	0.621
3874	0.6199
3883	0.6187
3892	0.6176
3901	0.6163
3910	0.6148
3919	0.6134
3928	0.6119
3937	0.6104
3946	0.6089
3955	0.6075
3964	0.606
3973	0.6045
3982	0.6031
3991	0.6014
4000	0.5999
