Infrared Spectrum: PHENOL], 2,2'-METHYLENEBIS[4-CHLORO-
Formula: C13 H10 Cl2 O2
CAS: 97-23-4
State: SOLID (SPLIT MULL)
Class: COBLENTZ III
Instrument: DOW KBr FOREPRISM-GRATING
Instrument parameters: BLAZED AT 3.5, 12.0, 20.0 MICRONS AND CHANGED AT 5.0, 7.5, 14.9 MICRONS
Sampling: TRANSMISSION
Resolution: 2
Origin: DOW CHEMICAL COMPANY
1/CM	TRANSMITTANCE
447.384	0.825
456.01	0.828
464.635	0.826
473.261	0.821
481.887	0.84
490.512	0.849
499.138	0.82
507.763	0.825
516.389	0.852
525.015	0.848
533.64	0.82
542.266	0.875
550.892	0.892
559.517	0.88
568.143	0.911
576.769	0.916
585.394	0.914
594.02	0.876
602.646	0.924
611.271	0.928
619.897	0.922
628.522	0.919
637.148	0.912
645.774	0.889
654.399	0.778
663.025	0.777
671.651	0.914
680.276	0.907
688.902	0.902
697.528	0.897
706.153	0.887
714.779	0.849
723.405	0.758
732.03	0.864
740.656	0.889
749.281	0.908
757.907	0.923
766.533	0.918
775.158	0.895
783.784	0.91
792.41	0.915
801.035	0.92
809.661	0.736
818.287	0.4091
826.912	0.758
835.538	0.94
844.163	0.94
852.789	0.947
861.415	0.938
870.04	0.902
878.666	0.821
887.292	0.923
895.917	0.897
904.543	0.867
913.169	0.92
921.794	0.727
930.42	0.896
939.046	0.896
947.671	0.931
956.297	0.931
964.922	0.926
973.548	0.922
982.174	0.924
990.799	0.927
999.425	0.924
1008.05	0.919
1016.68	0.922
1025.3	0.914
1033.93	0.912
1042.55	0.912
1051.18	0.911
1059.8	0.906
1068.43	0.888
1077.06	0.865
1085.68	0.869
1094.31	0.855
1102.93	0.806
1111.56	0.548
1120.18	0.702
1128.81	0.873
1137.44	0.888
1146.06	0.868
1154.69	0.77
1163.31	0.718
1171.94	0.621
1180.56	0.5551
1189.19	0.845
1197.81	0.853
1206.44	0.808
1215.07	0.726
1223.69	0.524
1232.32	0.277
1240.94	0.542
1249.57	0.605
1258.19	0.641
1266.82	0.738
1275.45	0.787
1284.07	0.885
1292.7	0.873
1301.32	0.863
1309.95	0.856
1318.57	0.845
1327.2	0.825
1335.83	0.766
1344.45	0.675
1353.08	0.697
1361.7	0.651
1370.33	0.708
1378.95	0.818
1387.58	0.852
1396.2	0.873
1404.83	0.861
1413.46	0.746
1422.08	0.559
1430.71	0.731
1439.33	0.84
1447.96	0.84
1456.58	0.688
1465.21	0.841
1473.84	0.81
1482.46	0.624
1491.09	0.6
1499.71	0.597
1508.34	0.885
1516.96	0.978
1525.59	0.985
1534.21	0.973
1542.84	0.983
1551.47	0.981
1560.09	0.974
1568.72	0.973
1577.34	0.957
1585.97	0.923
1594.59	0.95
1603.22	0.957
1611.85	0.934
1620.47	0.974
1629.1	0.975
1637.72	0.962
1646.35	0.966
1654.97	0.977
1663.6	0.977
1672.23	0.977
1680.85	0.975
1689.48	0.973
1698.1	0.97
1706.73	0.97
1715.35	0.969
1723.98	0.958
1732.6	0.966
1741.23	0.962
1749.86	0.953
1758.48	0.953
1767.11	0.963
1775.73	0.959
1784.36	0.962
1792.98	0.962
1801.61	0.957
1810.24	0.957
1818.86	0.958
1827.49	0.961
1836.11	0.957
1844.74	0.953
1853.36	0.954
1861.99	0.954
1870.61	0.943
1879.24	0.914
1887.87	0.95
1896.49	0.955
1905.12	0.955
1913.74	0.953
1922.37	0.955
1930.99	0.955
1939.62	0.953
1948.25	0.953
1956.87	0.953
1965.5	0.953
1974.12	0.953
1982.75	0.95
1991.37	0.95
2000	0.912
2008.63	0.9552
2017.25	0.963
2025.88	0.962
2034.5	0.961
2043.13	0.959
2051.75	0.959
2060.38	0.958
2069	0.9557
2077.63	0.954
2086.26	0.954
2094.88	0.954
2103.51	0.951
2112.13	0.948
2120.76	0.946
2129.38	0.944
2138.01	0.9427
2146.64	0.9413
2155.26	0.939
2163.89	0.938
2172.51	0.936
2181.14	0.9344
2189.76	0.9313
2198.39	0.9284
2207.01	0.928
2215.64	0.927
2224.27	0.924
2232.89	0.919
2241.52	0.915
2250.14	0.9107
2258.77	0.907
2267.39	0.9026
2276.02	0.898
2284.65	0.899
2293.27	0.8977
2301.9	0.8953
2310.52	0.8912
2319.15	0.889
2327.77	0.888
2336.4	0.888
2345.03	0.888
2353.65	0.8894
2362.28	0.892
2370.9	0.892
2379.53	0.891
2388.15	0.8885
2396.78	0.887
2405.4	0.885
2414.03	0.888
2422.66	0.888
2431.28	0.8871
2439.91	0.885
2448.53	0.883
2457.16	0.879
2465.78	0.8762
2474.41	0.879
2483.04	0.879
2491.66	0.8781
2500.29	0.8739
2508.91	0.873
2517.54	0.8744
2526.16	0.876
2534.79	0.876
2543.41	0.8751
2552.04	0.873
2560.67	0.871
2569.29	0.8678
2577.92	0.864
2586.54	0.863
2595.17	0.864
2603.79	0.865
2612.42	0.8661
2621.05	0.867
2629.67	0.8656
2638.3	0.8562
2646.92	0.853
2655.55	0.8481
2664.17	0.8439
2672.8	0.838
2681.43	0.837
2690.05	0.837
2698.68	0.838
2707.3	0.8366
2715.93	0.833
2724.55	0.832
2733.18	0.832
2741.8	0.832
2750.43	0.828
2759.06	0.8251
2767.68	0.824
2776.31	0.8199
2784.93	0.816
2793.56	0.814
2802.18	0.813
2810.81	0.812
2819.44	0.8086
2828.06	0.802
2836.69	0.7988
2845.31	0.7903
2853.94	0.7822
2862.56	0.779
2871.19	0.7781
2879.81	0.778
2888.44	0.778
2897.07	0.775
2905.69	0.7668
2914.32	0.7544
2922.94	0.7415
2931.57	0.7305
2940.19	0.727
2948.82	0.7316
2957.45	0.7414
2966.07	0.7508
2974.7	0.755
2983.32	0.757
2991.95	0.754
3000.57	0.7458
3009.2	0.7388
3017.83	0.732
3026.45	0.728
3035.08	0.7236
3043.7	0.7195
3052.33	0.715
3060.95	0.711
3069.58	0.7063
3078.2	0.7004
3086.83	0.6933
3095.46	0.6881
3104.08	0.681
3112.71	0.6759
3121.33	0.6688
3129.96	0.6637
3138.58	0.6567
3147.21	0.6486
3155.84	0.6405
3164.46	0.6324
3173.09	0.6243
3181.71	0.6148
3190.34	0.6066
3198.96	0.6001
3207.59	0.5911
3216.21	0.5819
3224.84	0.5709
3233.47	0.5586
3242.09	0.5434
3250.72	0.5293
3259.34	0.5191
3267.97	0.509
3276.59	0.4982
3285.22	0.4883
3293.85	0.4802
3302.47	0.4734
3311.1	0.472
3319.72	0.471
3328.35	0.4751
3336.97	0.4831
3345.6	0.4927
3354.23	0.5052
3362.85	0.5211
3371.48	0.5368
3380.1	0.5505
3388.73	0.5674
3397.35	0.5864
3405.98	0.6071
3414.6	0.6254
3423.23	0.6458
3431.86	0.665
3440.48	0.6843
3449.11	0.7051
3457.73	0.7197
3466.36	0.7319
3474.98	0.7442
3483.61	0.7579
3492.24	0.7641
3500.86	0.7743
3509.49	0.7804
3518.11	0.783
3526.74	0.786
3535.36	0.7909
3543.99	0.791
3552.61	0.7899
3561.24	0.787
3569.87	0.786
3578.49	0.7843
3587.12	0.782
3595.74	0.779
3604.37	0.778
3612.99	0.777
3621.62	0.774
3630.25	0.7714
3638.87	0.77
3647.5	0.767
3656.12	0.765
3664.75	0.763
3673.37	0.762
3682	0.7617
3690.63	0.7603
3699.25	0.759
3707.88	0.758
3716.5	0.7558
3725.13	0.755
3733.75	0.755
3742.38	0.755
3751	0.7531
3759.63	0.751
3768.26	0.7479
3776.88	0.746
3785.51	0.743
