Infrared Spectrum: GUANIDINE, 1,3-DI-o-TOLYL-
Formula: C15 H17 N3
CAS: 97-39-2
State: SOLID (OIL MULL)
Class: COBLENTZ III
Instrument: BAIRD (PRISM)
Instrument parameters: NaCl PRISM
Sampling: TRANSMISSION
Resolution: 2
Origin: WYANDOTTE CHEMICALS CORP.
MICROMETERS	TRANSMITTANCE
2.009	0.34
2.04804	0.355
2.08708	0.356
2.12612	0.364
2.16516	0.367
2.2042	0.363
2.24324	0.363
2.28228	0.367
2.32133	0.383
2.36037	0.388
2.39941	0.398
2.43845	0.412
2.47749	0.421
2.51653	0.437
2.55557	0.443
2.59461	0.447
2.63365	0.458
2.67269	0.468
2.71173	0.485
2.75077	0.48
2.78981	0.485
2.82885	0.5
2.86789	0.353
2.90694	0.262
2.94598	0.208
2.98502	0.219
3.02406	0.299
3.0631	0.262
3.10214	0.309
3.14118	0.277
3.18022	0.197
3.21926	0.156
3.2583	0.119
3.29734	0.104
3.33638	0.031
3.37542	0.017
3.41446	0.03
3.4535	0.03
3.49255	0.066
3.53159	0.436
3.57063	0.522
3.60967	0.523
3.64871	0.474
3.68775	0.524
3.72679	0.57
3.76583	0.594
3.80487	0.61
3.84391	0.627
3.88295	0.635
3.92199	0.641
3.96103	0.658
4.00007	0.663
4.03911	0.678
4.07816	0.68
4.1172	0.694
4.15624	0.701
4.19528	0.703
4.23432	0.702
4.27336	0.706
4.3124	0.723
4.35144	0.75
4.39048	0.761
4.42952	0.761
4.46856	0.766
4.5076	0.776
4.54664	0.783
4.58568	0.796
4.62472	0.798
4.66377	0.816
4.70281	0.823
4.74185	0.824
4.78089	0.828
4.81993	0.847
4.85897	0.857
4.89801	0.871
4.93705	0.875
4.97609	0.882
5.01513	0.896
5.05417	0.9
5.09321	0.906
5.13225	0.912
5.17129	0.88
5.21033	0.905
5.24938	0.889
5.28842	0.888
5.32746	0.932
5.3665	0.926
5.40554	0.949
5.44458	0.96
5.48362	0.945
5.52266	0.964
5.5617	0.928
5.60074	0.945
5.63978	0.968
5.67882	0.961
5.71786	0.96
5.7569	0.941
5.79594	0.909
5.83499	0.869
5.87403	0.773
5.91307	0.683
5.95211	0.522
5.99115	0.24
6.03019	0.111
6.06923	0.072
6.10827	0.092
6.14731	0.128
6.18635	0.196
6.22539	0.151
6.26443	0.13
6.30347	0.144
6.34251	0.271
6.38156	0.341
6.4206	0.254
6.45964	0.105
6.49868	0.089
6.53772	0.105
6.57676	0.105
6.6158	0.13
6.65484	0.164
6.69388	0.067
6.73292	0.072
6.77196	0.074
6.811	0.047
6.85004	0.051
6.88908	0.1
6.92812	0.197
6.96717	0.353
7.00621	0.445
7.04525	0.487
7.08429	0.514
7.12333	0.535
7.16237	0.47
7.20141	0.282
7.24045	0.19
7.27949	0.305
7.31853	0.203
7.35757	0.109
7.39661	0.163
7.43565	0.298
7.47469	0.423
7.51373	0.507
7.55278	0.555
7.59182	0.567
7.63086	0.498
7.6699	0.38
7.70894	0.371
7.74798	0.452
7.78702	0.551
7.82606	0.562
7.8651	0.574
7.90414	0.577
7.94318	0.46
7.98222	0.262
8.02126	0.136
8.0603	0.28
8.09934	0.452
8.13839	0.541
8.17743	0.599
8.21647	0.632
8.25551	0.66
8.29455	0.67
8.33359	0.649
8.37263	0.628
8.41167	0.601
8.45071	0.59
8.48975	0.69
8.52879	0.708
8.56783	0.728
8.60687	0.689
8.64591	0.681
8.68495	0.749
8.724	0.771
8.76304	0.773
8.80208	0.78
8.84112	0.753
8.88016	0.663
8.9192	0.476
8.95824	0.443
8.99728	0.574
9.03632	0.637
9.07536	0.69
9.1144	0.712
9.15344	0.727
9.19248	0.735
9.23152	0.735
9.27056	0.743
9.30961	0.756
9.34865	0.757
9.38769	0.762
9.42673	0.767
9.46577	0.76
9.50481	0.69
9.54385	0.524
9.58289	0.539
9.62193	0.624
9.66097	0.67
9.70001	0.641
9.73905	0.712
9.77809	0.74
9.81713	0.742
9.85617	0.703
9.89522	0.631
9.93426	0.551
9.9733	0.599
10.0123	0.681
10.0514	0.714
10.0904	0.7
10.1295	0.67
10.1685	0.647
10.2075	0.678
10.2466	0.687
10.2856	0.713
10.3247	0.74
10.3637	0.756
10.4027	0.771
10.4418	0.78
10.4808	0.798
10.5199	0.796
10.5589	0.809
10.5979	0.796
10.637	0.775
10.676	0.726
10.7151	0.616
10.7541	0.703
10.7932	0.77
10.8322	0.776
10.8712	0.77
10.9103	0.767
10.9493	0.775
10.9884	0.81
11.0274	0.823
11.0664	0.824
11.1055	0.823
11.1445	0.816
11.1836	0.809
11.2226	0.819
11.2616	0.821
11.3007	0.816
11.3397	0.798
11.3788	0.767
11.4178	0.686
11.4568	0.684
11.4959	0.746
11.5349	0.733
11.574	0.679
11.613	0.734
11.652	0.777
11.6911	0.785
11.7301	0.831
11.7692	0.863
11.8082	0.858
11.8472	0.828
11.8863	0.769
11.9253	0.66
11.9644	0.53
12.0034	0.518
12.0425	0.61
12.0815	0.722
12.1205	0.787
12.1596	0.826
12.1986	0.855
12.2377	0.875
12.2767	0.889
12.3157	0.899
12.3548	0.901
12.3938	0.9
12.4329	0.893
12.4719	0.889
12.5109	0.871
12.55	0.841
12.589	0.831
12.6281	0.847
12.6671	0.855
12.7061	0.816
12.7452	0.701
12.7842	0.486
12.8233	0.35
12.8623	0.506
12.9013	0.68
12.9404	0.777
12.9794	0.813
13.0185	0.82
13.0575	0.799
13.0966	0.733
13.1356	0.581
13.1746	0.396
13.2137	0.275
13.2527	0.219
13.2918	0.232
13.3308	0.159
13.3698	0.12
13.4089	0.131
13.4479	0.162
13.487	0.261
13.526	0.401
13.565	0.509
13.6041	0.574
13.6431	0.62
13.6822	0.637
13.7212	0.64
13.7602	0.603
13.7993	0.485
13.8383	0.309
13.8774	0.197
13.9164	0.269
13.9554	0.356
13.9945	0.465
14.0335	0.562
14.0726	0.628
14.1116	0.674
14.1506	0.699
14.1897	0.716
14.2287	0.722
14.2678	0.729
14.3068	0.73
14.3459	0.739
14.3849	0.748
14.4239	0.745
14.463	0.746
14.502	0.745
14.5411	0.742
14.5801	0.738
14.6191	0.726
14.6582	0.716
14.6972	0.695
14.7363	0.675
14.7753	0.664
14.8143	0.675
14.8534	0.683
14.8924	0.685
14.9315	0.694
14.9705	0.683
15.0095	0.67
15.0486	0.64
15.0876	0.632
15.1267	0.658
15.1657	0.667
15.2047	0.669
15.2438	0.667
15.2828	0.66
15.3219	0.654
15.3609	0.647
15.3999	0.644
15.439	0.638
15.478	0.63
15.5171	0.619
15.5561	0.615
15.5952	0.613
15.6342	0.608
15.6732	0.598
15.7123	0.594
15.7513	0.581
15.7904	0.576
15.8294	0.561
15.8684	0.556
15.9075	0.55
15.9465	0.547
15.9856	0.545
