Infrared Spectrum: N'-Diethyl-3-amino-4-methoxybenzenesulfonamide
Formula: C 11 H 18 N 2 O 3 S
CAS: 97-35-8
State: gas
Origin: EPA-IR VAPOR PHASE LIBRARY
1/CM	ABSORBANCE
501.5	0.00732
513.074	0.01091
524.648	0.01112
536.222	0.00844
547.796	0.00896
559.37	0.01479
570.944	0.01741
582.518	0.03303
594.092	0.02147
605.666	0.00995
617.24	0.00832
628.814	0.00712
640.388	0.00874
651.962	0.01102
663.536	0.00912
675.11	0.01033
686.684	0.01871
698.258	0.0505
709.832	0.03626
721.406	0.01278
732.98	0.00793
744.554	0.00787
756.128	0.0113
767.702	0.00931
779.276	0.01282
790.85	0.01673
802.423	0.01148
813.997	0.00671
825.571	0.00409
837.145	0.00339
848.719	0.00349
860.293	0.00453
871.867	0.0054
883.441	0.00503
895.015	0.00624
906.589	0.00971
918.163	0.01632
929.737	0.02339
941.311	0.01257
952.885	0.00627
964.459	0.00472
976.033	0.00494
987.607	0.00633
999.181	0.01053
1010.76	0.02205
1022.33	0.02821
1033.9	0.01851
1045.48	0.01165
1057.05	0.0128
1068.63	0.01898
1080.2	0.01827
1091.77	0.01502
1103.35	0.01286
1114.92	0.00869
1126.49	0.00959
1138.07	0.02122
1149.64	0.06481
1161.22	0.0735
1172.79	0.02804
1184.36	0.02664
1195.94	0.03074
1207.51	0.02101
1219.09	0.02649
1230.66	0.03675
1242.23	0.01775
1253.81	0.01305
1265.38	0.02588
1276.96	0.04715
1288.53	0.02261
1300.1	0.01274
1311.68	0.01015
1323.25	0.01277
1334.83	0.02128
1346.4	0.03245
1357.97	0.04265
1369.55	0.03683
1381.12	0.01996
1392.7	0.01208
1404.27	0.00838
1415.84	0.01118
1427.42	0.01295
1438.99	0.00986
1450.57	0.01161
1462.14	0.01251
1473.71	0.01514
1485.29	0.01574
1496.86	0.03282
1508.44	0.04243
1520.01	0.01475
1531.58	0.00678
1543.16	0.00431
1554.73	0.00417
1566.31	0.00573
1577.88	0.00989
1589.45	0.01344
1601.03	0.01482
1612.6	0.022
1624.18	0.01784
1635.75	0.00827
1647.32	0.00429
1658.9	0.00273
1670.47	0.00202
1682.05	0.00154
1693.62	0.00139
1705.19	0.00142
1716.77	0.00143
1728.34	0.00142
1739.92	0.0013
1751.49	0.0011
1763.06	0.000896
1774.64	0.0008465
1786.21	0.0008223
1797.79	0.0008103
1809.36	0.0007928
1820.93	0.000893
1832.51	0.00104
1844.08	0.00109
1855.66	0.0009562
1867.23	0.0008059
1878.8	0.0007417
1890.38	0.0006711
1901.95	0.000659
1913.53	0.000598
1925.1	0.0005791
1936.67	0.0006241
1948.25	0.0005987
1959.82	0.0006539
1971.4	0.0008326
1982.97	0.0009955
1994.54	0.0009198
2006.12	0.000819
2017.69	0.0008851
2029.27	0.0009667
2040.84	0.0009515
2052.41	0.0008527
2063.99	0.0007689
2075.56	0.0006832
2087.14	0.0006237
2098.71	0.0005859
2110.28	0.0005646
2121.86	0.0005125
2133.43	0.0004673
2145.01	0.0004533
2156.58	0.0004204
2168.15	0.0004417
2179.73	0.0004322
2191.3	0.0004425
2202.88	0.0004482
2214.45	0.0004493
2226.02	0.000521
2237.6	0.0005672
2249.17	0.0006515
2260.74	0.0006922
2272.32	0.0005327
2283.89	0.0004321
2295.47	0.0004585
2307.04	0.0004625
2318.61	0.0004346
2330.19	0.0004214
2341.76	0.0004346
2353.34	0.00044
2364.91	0.000369
2376.48	0.0003688
2388.06	0.0003426
2399.63	0.0003713
2411.21	0.0003684
2422.78	0.0004103
2434.35	0.0004145
2445.93	0.0004365
2457.5	0.0004699
2469.08	0.0004592
2480.65	0.00056
2492.22	0.0006254
2503.8	0.0007007
2515.37	0.0007326
2526.95	0.0007105
2538.52	0.0007616
2550.09	0.0008454
2561.67	0.0007784
2573.24	0.0005577
2584.82	0.0004677
2596.39	0.0004537
2607.96	0.0005694
2619.54	0.0005884
2631.11	0.000665
2642.69	0.000693
2654.26	0.0007269
2665.83	0.0006863
2677.41	0.0006901
2688.98	0.0007102
2700.56	0.0006921
2712.13	0.0006867
2723.7	0.0007704
2735.28	0.0008986
2746.85	0.0008834
2758.43	0.0008811
2770	0.0008848
2781.57	0.0009449
2793.15	0.00111
2804.72	0.00145
2816.3	0.00198
2827.87	0.00289
2839.44	0.00521
2851.02	0.00779
2862.59	0.00651
2874.17	0.0084
2885.74	0.01095
2897.31	0.01019
2908.89	0.01061
2920.46	0.01258
2932.04	0.01625
2943.61	0.02326
2955.18	0.01916
2966.76	0.01667
2978.33	0.01917
2989.91	0.01619
3001.48	0.01278
3013.05	0.01001
3024.63	0.00463
3036.2	0.0033
3047.78	0.00296
3059.35	0.00299
3070.92	0.00303
3082.5	0.00245
3094.07	0.00202
3105.65	0.00152
3117.22	0.0011
3128.79	0.0009076
3140.37	0.0008092
3151.94	0.0008007
3163.52	0.0007988
3175.09	0.0008683
3186.66	0.0008358
3198.24	0.0007511
3209.81	0.0005871
3221.39	0.0004464
3232.96	0.000386
3244.53	0.0003
3256.11	0.0002565
3267.68	0.0002406
3279.26	0.0002543
3290.83	0.0002046
3302.4	0.000258
3313.98	0.0002025
3325.55	0.000235
3337.13	0.000202
3348.7	0.0002708
3360.27	0.0003252
3371.85	0.0004558
3383.42	0.0007917
3395	0.00178
3406.57	0.00441
3418.14	0.00634
3429.72	0.00214
3441.29	0.0009287
3452.86	0.0006201
3464.44	0.0007482
3476.01	0.00111
3487.59	0.00196
3499.16	0.00385
3510.73	0.0054
3522.31	0.00247
3533.88	0.0009255
3545.46	0.0005033
3557.03	0.0003874
3568.6	0.0002724
3580.18	0.0002523
3591.75	0.0001864
3603.33	0.0002167
3614.9	0.0002201
3626.47	0.0002487
3638.05	0.0003116
3649.62	0.0002788
3661.2	0.0002252
3672.77	0.0002526
3684.34	0.0002575
3695.92	0.0002685
3707.49	0.0002342
3719.07	0.0002848
3730.64	0.0002632
3742.21	0.00029
3753.79	0.0003154
3765.36	0.0003214
3776.94	0.0003297
3788.51	0.0002876
3800.08	0.0003582
3811.66	0.000316
3823.23	0.0003478
3834.81	0.0003197
3846.38	0.0002645
3857.95	0.0003089
3869.53	0.0003767
3881.1	0.0003721
3892.68	0.0003564
3904.25	0.0003743
3915.82	0.0002842
3927.4	0.0004067
3938.97	0.0003599
3950.55	0.0004091
3962.12	0.0004738
3973.69	0.0005445
3985.27	0.0004718
3996.84	0.0005745
