Infrared Spectrum: Carvyl propionate
Formula: C 13 H 20 O 2
CAS: 97-45-0
State: gas
Instrument: HP-GC/MS/IRD
Origin: NIST Mass Spectrometry Data Center
1/CM	ABSORBANCE
550	0.0022015
562	0.0017374
574	0.0010591
586	0.0010115
598	0.0009996
610	0.0010472
622	0.000714
634	0.0003332
646	0.0002023
658	5.95e-05
670	0.0001547
682	8.33e-05
694	9.52e-05
706	0.000119
718	0.0001071
730	0.0002023
742	0.0003689
754	0.000595
766	0.0009996
778	0.0012376
790	0.0017969
802	0.0044744
814	0.0057239
826	0.00357
838	0.0036295
850	0.0040698
862	0.0041293
874	0.0068544
886	0.0170646
898	0.0196945
910	0.0096033
922	0.0164696
934	0.0155533
946	0.011543
958	0.0146965
970	0.0147084
982	0.0138992
994	0.0227528
1006	0.0356405
1018	0.0386393
1030	0.0255969
1042	0.0208369
1054	0.0265608
1066	0.0328083
1078	0.0331891
1090	0.0246211
1102	0.0168742
1114	0.0148631
1126	0.015589
1138	0.0191828
1150	0.0286195
1162	0.0483378
1174	0.0966875
1186	0.113728
1198	0.0806701
1210	0.0612969
1222	0.042602
1234	0.0334033
1246	0.0305949
1258	0.0290717
1270	0.0289289
1282	0.0232645
1294	0.0146846
1306	0.0119119
1318	0.0167195
1330	0.0227528
1342	0.0211106
1354	0.0220983
1366	0.0209202
1378	0.0191828
1390	0.01309
1402	0.0082705
1414	0.0081396
1426	0.0106624
1438	0.0167552
1450	0.0195993
1462	0.0210392
1474	0.0130067
1486	0.0057715
1498	0.0037366
1510	0.0027132
1522	0.0022491
1534	0.0018683
1546	0.0016303
1558	0.0015708
1570	0.0016779
1582	0.0019635
1594	0.0023681
1606	0.0029155
1618	0.0039389
1630	0.0062356
1642	0.0111384
1654	0.0080206
1666	0.0040103
1678	0.0035343
1690	0.0046053
1702	0.0079254
1714	0.0118405
1726	0.0182546
1738	0.0559776
1750	0.114252
1762	0.0522767
1774	0.0197183
1786	0.0126021
1798	0.0076993
1810	0.0039865
1822	0.0022729
1834	0.0015351
1846	0.00119
1858	0.0009401
1870	0.0007616
1882	0.0006902
1894	0.0006545
1906	0.0005712
1918	0.0005236
1930	0.000476
1942	0.0004284
1954	0.0004403
1966	0.0004641
1978	0.000357
1990	0.0003332
2002	0.0003689
2014	0.0004046
2026	0.0003808
2038	0.0003689
2050	0.0004522
2062	0.0004641
2074	0.0003451
2086	0.0002975
2098	0.000238
2110	0.0001785
2122	0.0001904
2134	9.52e-05
2146	8.33e-05
2158	3.57e-05
2170	3.57e-05
2182	5.95e-05
2194	0.000119
2206	0.0001071
2218	9.52e-05
2230	0.0001547
2242	0.0001904
2254	0.0002023
2266	0.0001904
2278	0.0001547
2290	0.000119
2302	0.0001071
2314	0.0001666
2326	0.0002499
2338	0.0002856
2350	0.0003213
2362	0.0002856
2374	0.0001785
2386	0.0001666
2398	0.0001904
2410	0.0001785
2422	0.0001309
2434	9.52e-05
2446	0.0001071
2458	0.0001428
2470	0.0001428
2482	0.0001309
2494	0.0001071
2506	3.57e-05
2518	0.0001071
2530	9.52e-05
2542	0.0001666
2554	0.0001666
2566	0.000119
2578	0.0001785
2590	0.0002023
2602	0.0002142
2614	0.0002975
2626	0.0004046
2638	0.0004046
2650	0.0003808
2662	0.0003332
2674	0.0003927
2686	0.0004284
2698	0.0004998
2710	0.0006069
2722	0.0008092
2734	0.0012376
2746	0.0014161
2758	0.0011662
2770	0.0011305
2782	0.0012971
2794	0.0015946
2806	0.0022729
2818	0.0032844
2830	0.004879
2842	0.0094486
2854	0.0164339
2866	0.018802
2878	0.0197421
2890	0.0239071
2902	0.0296072
2914	0.0325227
2926	0.0506107
2938	0.0435183
2950	0.0417809
2962	0.0395913
2974	0.0437444
2986	0.0434707
2998	0.0267631
3010	0.0196588
3022	0.0138754
3034	0.009282
3046	0.0081396
3058	0.0068187
3070	0.0078659
3082	0.0115549
3094	0.0093058
3106	0.003332
3118	0.002142
3130	0.0015113
3142	0.0010948
3154	0.0008568
3166	0.0006783
3178	0.0005474
3190	0.0004403
3202	0.000357
3214	0.0002499
3226	0.0002499
3238	0.0001428
3250	0.0001666
3262	0.0001428
3274	0.0001428
3286	0.0001309
3298	0.0001309
3310	5.95e-05
3322	0.0001547
3334	5.95e-05
3346	1.19e-05
3358	2.38e-05
3370	7.14e-05
3382	9.52e-05
3394	9.52e-05
3406	0.0001547
3418	7.14e-05
3430	0.000238
3442	0.0002023
3454	0.0004165
3466	0.0006545
3478	0.0010948
3490	0.0010115
3502	0.0006069
3514	0.0004165
3526	0.0003213
3538	0.0002142
3550	0.0001309
3562	0.0001904
3574	0.0002023
3586	0.0002261
3598	0.0001666
3610	0.000119
3622	9.52e-05
3634	0.0001071
3646	2.38e-05
3658	0.0001071
3670	9.52e-05
3682	0.0001547
3694	0.0001309
3706	5.95e-05
3718	0.0001666
3730	0.0001309
3742	0.0001071
3754	0.0001666
3766	0.0002261
3778	0.0002023
3790	0.0001904
3802	0.0002499
3814	0.0001547
3826	0.0001904
3838	0.0002261
