Infrared Spectrum: 5-Nitrososalicylaldehyde
Formula: C 7 H 5 N O 4
CAS: 97-51-8
State: gas
Instrument: HP-GC/MS/IRD
Origin: NIST Mass Spectrometry Data Center
1/CM	ABSORBANCE
550	0.0008229
562	6.63e-05
574	0.0002184
586	0.0003861
598	0.0003822
610	0.0006357
622	0.0017355
634	0.0032487
646	0.0017784
658	0.0012246
670	0.0016146
682	0.0019461
694	0.0032019
706	0.0054951
718	0.0108225
730	0.0078
742	0.0056823
754	0.006435
766	0.0045318
778	0.0020046
790	0.0004758
802	0.0002106
814	0.0004875
826	0.0021294
838	0.0041808
850	0.0024531
862	0.0005694
874	0.000156
886	0.0004836
898	0.001443
910	0.002262
922	0.0034203
934	0.0038142
946	0.0006123
958	0.0001053
970	7.41e-05
982	0.0001872
994	0.0001716
1006	0.0003237
1018	0.000273
1030	0.0001716
1042	0.000234
1054	0.0005811
1066	0.000702
1078	0.001599
1090	0.0072189
1102	0.0049803
1114	0.001326
1126	0.0013065
1138	0.0018018
1150	0.0023517
1162	0.0042315
1174	0.0066261
1186	0.0067392
1198	0.0050934
1210	0.0045591
1222	0.0061815
1234	0.005109
1246	0.0033033
1258	0.0026676
1270	0.004875
1282	0.013299
1294	0.020631
1306	0.0084708
1318	0.0074568
1330	0.0105456
1342	0.0275613
1354	0.0306189
1366	0.0107874
1378	0.0062829
1390	0.0022932
1402	0.0020475
1414	0.0021684
1426	0.0026559
1438	0.0034983
1450	0.0042666
1462	0.0077298
1474	0.0136305
1486	0.0103116
1498	0.0058812
1510	0.0041808
1522	0.0045318
1534	0.0066846
1546	0.0133263
1558	0.0135213
1570	0.0085527
1582	0.0109746
1594	0.0098436
1606	0.0068562
1618	0.0099957
1630	0.0131391
1642	0.0073671
1654	0.0056004
1666	0.0115479
1678	0.0367809
1690	0.0257244
1702	0.0107211
1714	0.0047268
1726	0.0022152
1738	0.0012441
1750	0.0007488
1762	0.0005265
1774	0.0004173
1786	0.0003978
1798	0.0005109
1810	0.0005967
1822	0.0003705
1834	0.0002496
1846	0.0002301
1858	0.0002574
1870	0.0002145
1882	0.000156
1894	0.0001872
1906	0.0002301
1918	0.0003354
1930	0.0004251
1942	0.0003159
1954	0.0001599
1966	0.0001092
1978	0.0001248
1990	0.0001404
2002	0.0001053
2014	0.0001404
2026	0.0001521
2038	0.0001365
2050	0.0001638
2062	0.0001989
2074	0.0001755
2086	0.0001677
2098	0.0001833
2110	0.000195
2122	0.0001872
2134	9.36e-05
2146	8.97e-05
2158	7.02e-05
2170	5.46e-05
2182	7.41e-05
2194	8.97e-05
2206	6.24e-05
2218	0.0001092
2230	0.0001209
2242	0.0001365
2254	0.0001677
2266	0.0001794
2278	0.0001677
2290	0.0001365
2302	0.0001131
2314	0.000156
2326	0.0001209
2338	0.0001053
2350	0.0001443
2362	0.0001209
2374	0.0001365
2386	0.0001365
2398	0.0001404
2410	0.000117
2422	0.0001404
2434	0.0001716
2446	0.0001911
2458	0.0001521
2470	0.0001638
2482	0.0001482
2494	0.0001833
2506	0.000234
2518	0.0002691
2530	0.0002418
2542	0.0002418
2554	0.0002886
2566	0.0003081
2578	0.0003705
2590	0.0003354
2602	0.000312
2614	0.0003744
2626	0.0003822
2638	0.0004407
2650	0.0004875
2662	0.0005148
2674	0.0004602
2686	0.0004446
2698	0.0004446
2710	0.000468
2722	0.0008658
2734	0.0013026
2746	0.0010452
2758	0.0007878
2770	0.0007839
2782	0.0007527
2794	0.0009672
2806	0.0011739
2818	0.0016341
2830	0.0030069
2842	0.0055731
2854	0.0050895
2866	0.0021723
2878	0.0011427
2890	0.0010686
2902	0.0009243
2914	0.0007371
2926	0.0007332
2938	0.000741
2950	0.0006903
2962	0.0006591
2974	0.0005694
2986	0.000585
2998	0.0006045
3010	0.0006006
3022	0.0006201
3034	0.0007371
3046	0.0007605
3058	0.0009633
3070	0.0012207
3082	0.0014508
3094	0.0015951
3106	0.0016497
3118	0.0018369
3130	0.0020241
3142	0.0021294
3154	0.0022776
3166	0.0023712
3178	0.0023829
3190	0.0023946
3202	0.0023751
3214	0.0023556
3226	0.0022113
3238	0.0020631
3250	0.0020787
3262	0.0020475
3274	0.002067
3286	0.0020124
3298	0.002028
3310	0.0019578
3322	0.0018252
3334	0.0018135
3346	0.0019812
3358	0.0019266
3370	0.0016575
3382	0.0014547
3394	0.0012441
3406	0.0011778
3418	0.0010179
3430	0.0009672
3442	0.0008346
3454	0.0007449
3466	0.0006591
3478	0.0006045
3490	0.0005616
3502	0.0005694
3514	0.0004563
3526	0.0004134
3538	0.0003276
3550	0.0003783
3562	0.0003003
3574	0.0002652
3586	0.0003744
3598	0.0002808
3610	0.0001443
3622	0.0001443
3634	0.000156
3646	0.0002145
3658	7.8e-05
3670	0.0001209
3682	0.0001833
3694	0.000117
3706	9.36e-05
3718	0.0001599
3730	5.46e-05
3742	6.24e-05
3754	7.41e-05
3766	4.68e-05
3778	7.02e-05
3790	8.58e-05
3802	5.46e-05
3814	0.0001326
3826	5.46e-05
3838	4.68e-05
