Infrared Spectrum: 5-UREIDOHYDANTOIN
Formula: C4 H6 N4 O3
CAS: 97-59-6
State: SOLID (MINERAL OIL MULL)
Class: COBLENTZ
Instrument: Not specified, most likely a prism, grating, or hybrid spectrometer.
Sampling: TRANSMISSION
Resolution: 4
Origin: DOW CHEMICAL COMPANY
MICROMETERS	TRANSMITTANCE
2.048	0.511
2.08903	0.528
2.13007	0.538
2.1711	0.543
2.21214	0.55
2.25317	0.553
2.29421	0.555
2.33524	0.564
2.37628	0.576
2.41731	0.588
2.45835	0.603
2.49938	0.618
2.54042	0.639
2.58145	0.649
2.62249	0.668
2.66352	0.683
2.70456	0.7
2.74559	0.717
2.78663	0.728
2.82766	0.728
2.8687	0.649
2.90973	0.423
2.95077	0.488
2.9918	0.312
3.03284	0.314
3.07387	0.369
3.11491	0.324
3.15594	0.307
3.19698	0.316
3.23801	0.331
3.27905	0.294
3.32008	0.261
3.36112	0.205
3.40215	0.044
3.44318	0.02
3.48422	0.051
3.52525	0.1
3.56629	0.422
3.60732	0.487
3.64836	0.478
3.68939	0.523
3.73043	0.565
3.77146	0.589
3.8125	0.622
3.85353	0.642
3.89457	0.663
3.9356	0.688
3.97664	0.704
4.01767	0.714
4.05871	0.728
4.09974	0.738
4.14078	0.747
4.18181	0.748
4.22285	0.752
4.26388	0.76
4.30492	0.791
4.34595	0.808
4.38699	0.817
4.42802	0.82
4.46906	0.823
4.51009	0.829
4.55113	0.832
4.59216	0.839
4.6332	0.849
4.67423	0.856
4.71527	0.861
4.7563	0.868
4.79733	0.87
4.83837	0.866
4.8794	0.875
4.92044	0.875
4.96147	0.866
5.00251	0.888
5.04354	0.887
5.08458	0.88
5.12561	0.882
5.16665	0.866
5.20768	0.858
5.24872	0.844
5.28975	0.82
5.33079	0.796
5.37182	0.764
5.41286	0.723
5.45389	0.678
5.49493	0.634
5.53596	0.582
5.577	0.487
5.61803	0.316
5.65907	0.323
5.7001	0.42
5.74114	0.394
5.78217	0.288
5.82321	0.194
5.86424	0.184
5.90528	0.194
5.94631	0.275
5.98735	0.278
6.02838	0.194
6.06942	0.167
6.11045	0.234
6.15148	0.336
6.19252	0.388
6.23355	0.348
6.27459	0.326
6.31562	0.442
6.35666	0.494
6.39769	0.521
6.43873	0.502
6.47976	0.43
6.5208	0.305
6.56183	0.194
6.60287	0.218
6.6439	0.276
6.68494	0.352
6.72597	0.382
6.76701	0.389
6.80804	0.217
6.84908	0.157
6.89011	0.179
6.93115	0.252
6.97218	0.287
7.01322	0.314
7.05425	0.4
7.09529	0.459
7.13632	0.41
7.17736	0.382
7.21839	0.355
7.25943	0.278
7.30046	0.282
7.3415	0.353
7.38253	0.376
7.42356	0.48
7.4646	0.514
7.50563	0.452
7.54667	0.345
7.5877	0.374
7.62874	0.476
7.66977	0.492
7.71081	0.47
7.75184	0.415
7.79288	0.384
7.83391	0.389
7.87495	0.444
7.91598	0.502
7.95702	0.543
7.99805	0.577
8.03909	0.603
8.08012	0.627
8.12116	0.647
8.16219	0.67
8.20323	0.682
8.24426	0.683
8.2853	0.62
8.32633	0.478
8.36737	0.398
8.4084	0.348
8.44944	0.288
8.49047	0.312
8.53151	0.382
8.57254	0.446
8.61358	0.48
8.65461	0.509
8.69565	0.535
8.73668	0.548
8.77771	0.562
8.81875	0.57
8.85978	0.574
8.90082	0.576
8.94185	0.576
8.98289	0.577
9.02392	0.581
9.06496	0.589
9.10599	0.603
9.14703	0.615
9.18806	0.627
9.2291	0.642
9.27013	0.647
9.31117	0.656
9.3522	0.658
9.39324	0.637
9.43427	0.564
9.47531	0.543
9.51634	0.596
9.55738	0.635
9.59841	0.656
9.63945	0.671
9.68048	0.676
9.72152	0.68
9.76255	0.671
9.80359	0.618
9.84462	0.531
9.88566	0.504
9.92669	0.547
9.96773	0.593
10.0088	0.62
10.0498	0.641
10.0908	0.649
10.1319	0.658
10.1729	0.664
10.2139	0.668
10.255	0.668
10.296	0.663
10.337	0.649
10.3781	0.647
10.4191	0.661
10.4601	0.673
10.5012	0.683
10.5422	0.695
10.5832	0.705
10.6243	0.712
10.6653	0.717
10.7064	0.723
10.7474	0.728
10.7884	0.733
10.8295	0.738
10.8705	0.743
10.9115	0.745
10.9526	0.75
10.9936	0.753
11.0346	0.755
11.0757	0.758
11.1167	0.762
11.1577	0.764
11.1988	0.764
11.2398	0.764
11.2808	0.765
11.3219	0.769
11.3629	0.769
11.4039	0.769
11.445	0.767
11.486	0.755
11.527	0.747
11.5681	0.75
11.6091	0.753
11.6502	0.755
11.6912	0.757
11.7322	0.755
11.7733	0.748
11.8143	0.741
11.8553	0.733
11.8964	0.721
11.9374	0.704
11.9784	0.692
12.0195	0.673
12.0605	0.646
12.1015	0.613
12.1426	0.574
12.1836	0.523
12.2246	0.488
12.2657	0.466
12.3067	0.468
12.3477	0.519
12.3888	0.582
12.4298	0.627
12.4709	0.652
12.5119	0.664
12.5529	0.666
12.594	0.658
12.635	0.634
12.676	0.605
12.7171	0.574
12.7581	0.541
12.7991	0.517
12.8402	0.5
12.8812	0.499
12.9222	0.511
12.9633	0.531
13.0043	0.56
13.0453	0.562
13.0864	0.512
13.1274	0.403
13.1684	0.364
13.2095	0.391
13.2505	0.454
13.2915	0.495
13.3326	0.521
13.3736	0.54
13.4147	0.55
13.4557	0.557
13.4967	0.555
13.5378	0.553
13.5788	0.553
13.6198	0.548
13.6609	0.545
13.7019	0.538
13.7429	0.528
13.784	0.514
13.825	0.497
13.866	0.482
13.9071	0.468
13.9481	0.449
13.9891	0.427
14.0302	0.396
14.0712	0.364
14.1122	0.34
14.1533	0.331
14.1943	0.336
14.2353	0.36
14.2764	0.384
14.3174	0.408
14.3585	0.42
14.3995	0.43
14.4405	0.439
14.4816	0.442
14.5226	0.441
14.5636	0.437
14.6047	0.432
14.6457	0.423
14.6867	0.418
14.7278	0.408
14.7688	0.398
14.8098	0.388
14.8509	0.374
14.8919	0.36
14.9329	0.355
14.974	0.358
15.015	0.36
15.056	0.357
15.0971	0.348
15.1381	0.34
15.1792	0.331
15.2202	0.319
15.2612	0.314
15.3023	0.302
15.3433	0.294
15.3843	0.28
15.4254	0.271
15.4664	0.266
15.5074	0.252
15.5485	0.246
15.5895	0.235
15.6305	0.229
15.6716	0.223
15.7126	0.222
15.7536	0.222
15.7947	0.222
15.8357	0.222
15.8767	0.222
