Infrared Spectrum: Isoeugenol
Formula: C 10 H 12 O 2
CAS: 97-54-1
State: gas
Instrument: HP-GC/MS/IRD
Origin: NIST Mass Spectrometry Data Center
1/CM	ABSORBANCE
550	0.0010908
562	0.0011484
574	0.0009072
586	0.0016956
598	0.0015372
610	0.0011448
622	0.0004932
634	0.0002196
646	0.0001404
658	1.08e-05
670	7.2e-06
682	5.04e-05
694	5.04e-05
706	0.0001836
718	0.0003456
730	0.0012168
742	0.0015876
754	0.001728
766	0.0025524
778	0.0043308
790	0.0058032
802	0.0042444
814	0.0029844
826	0.00279
838	0.001836
850	0.0025092
862	0.0026928
874	0.0017928
886	0.0013248
898	0.0015624
910	0.00207
922	0.0021204
934	0.0021132
946	0.0037692
958	0.0066312
970	0.0036144
982	0.0019008
994	0.0020736
1006	0.0025632
1018	0.0046224
1030	0.0076104
1042	0.0065988
1054	0.0031464
1066	0.0014796
1078	0.0010944
1090	0.0014472
1102	0.0028476
1114	0.006606
1126	0.0070596
1138	0.00594
1150	0.0096984
1162	0.0090828
1174	0.0073728
1186	0.0091476
1198	0.0122724
1210	0.0133884
1222	0.0135396
1234	0.018918
1246	0.0191052
1258	0.0257868
1270	0.0303516
1282	0.0188136
1294	0.0099576
1306	0.0066204
1318	0.0037548
1330	0.002484
1342	0.002916
1354	0.005436
1366	0.006768
1378	0.0046152
1390	0.0024876
1402	0.0021132
1414	0.004518
1426	0.0070164
1438	0.004536
1450	0.0051624
1462	0.0066564
1474	0.0071964
1486	0.00756
1498	0.01728
1510	0.036
1522	0.0192456
1534	0.0052452
1546	0.002664
1558	0.0019008
1570	0.0020016
1582	0.0035964
1594	0.0060444
1606	0.0053208
1618	0.0034056
1630	0.001512
1642	0.0008496
1654	0.0006912
1666	0.0005256
1678	0.0003924
1690	0.0003312
1702	0.000342
1714	0.00036
1726	0.0004608
1738	0.0005724
1750	0.000378
1762	0.0002232
1774	0.0001836
1786	0.0001656
1798	0.0001512
1810	0.0001584
1822	0.0001908
1834	0.0001872
1846	0.0003168
1858	0.0004572
1870	0.0003528
1882	0.0001692
1894	0.0001116
1906	9.36e-05
1918	0.000108
1930	9e-05
1942	8.28e-05
1954	7.2e-05
1966	0.0001224
1978	0.000126
1990	0.0002088
2002	0.000198
2014	0.0002052
2026	0.0002268
2038	0.0003132
2050	0.000378
2062	0.0003384
2074	0.000288
2086	0.0002016
2098	0.0001116
2110	4.68e-05
2122	3.96e-05
2134	4.68e-05
2146	6.48e-05
2158	5.76e-05
2170	6.12e-05
2182	6.48e-05
2194	6.48e-05
2206	3.6e-05
2218	0
2230	3.6e-05
2242	5.4e-05
2254	6.48e-05
2266	3.96e-05
2278	7.56e-05
2290	0.0001116
2302	0.0001476
2314	0.0001404
2326	0.0001224
2338	0.0001368
2350	0.0001188
2362	0.0001512
2374	0.000126
2386	0.0001656
2398	0.00018
2410	0.000126
2422	0.0001368
2434	9e-05
2446	0.0001224
2458	0.000162
2470	0.0002484
2482	0.0002628
2494	0.0002664
2506	0.0002772
2518	0.0002412
2530	0.0002376
2542	0.0002088
2554	0.0001692
2566	0.0001044
2578	0.000108
2590	0.0001296
2602	0.0001404
2614	0.0002016
2626	0.0002232
2638	0.0002196
2650	0.0001872
2662	0.000108
2674	9.36e-05
2686	9.36e-05
2698	0.0001332
2710	0.0001404
2722	0.0001908
2734	0.0004212
2746	0.00054
2758	0.0003348
2770	0.0003384
2782	0.0003996
2794	0.0005256
2806	0.0006948
2818	0.0010116
2830	0.0015408
2842	0.0028152
2854	0.0038664
2866	0.0046188
2878	0.0040032
2890	0.0038124
2902	0.004176
2914	0.0051588
2926	0.0082548
2938	0.00774
2950	0.00801
2962	0.0071028
2974	0.0054792
2986	0.0041112
2998	0.0051228
3010	0.0069876
3022	0.0063972
3034	0.0047268
3046	0.003942
3058	0.0038412
3070	0.003186
3082	0.0017388
3094	0.00108
3106	0.0009072
3118	0.0007992
3130	0.000648
3142	0.0004464
3154	0.0002988
3166	0.0002772
3178	0.0002268
3190	0.000234
3202	0.0001584
3214	0.0001404
3226	0.0001584
3238	0.0001152
3250	0.0001116
3262	0.0001692
3274	0.0001476
3286	0.0001152
3298	9.36e-05
3310	9.72e-05
3322	9.36e-05
3334	7.2e-05
3346	7.56e-05
3358	9.36e-05
3370	0.0001188
3382	9e-05
3394	6.84e-05
3406	9e-05
3418	9.72e-05
3430	7.92e-05
3442	8.28e-05
3454	7.92e-05
3466	1.08e-05
3478	0.0001512
3490	0.0001152
3502	0.0001188
3514	0.0001728
3526	0.0002304
3538	0.0004104
3550	0.0007128
3562	0.0016452
3574	0.0066528
3586	0.016596
3598	0.0105516
3610	0.0023148
3622	0.0007776
3634	0.0005328
3646	0.0007416
3658	0.0005724
3670	0.0002052
3682	0.0001296
3694	0.0001656
3706	7.56e-05
3718	0.000144
3730	0.0001368
3742	0.0001188
3754	0.000126
3766	0.0001332
3778	0.000144
3790	0.0001476
3802	0.0001728
3814	0.0001728
3826	0.0001728
3838	0.0002196
