Infrared Spectrum: ITACONIC ACID
Formula: C5 H6 O4
CAS: 97-65-4
State: SOLID (MINERAL OIL MULL)
Class: COBLENTZ
Instrument: Not specified, most likely a prism, grating, or hybrid spectrometer.
Sampling: TRANSMISSION
Resolution: 4
Origin: WYANDOTTE CHEMICALS CORP., WYANDOTTE, MICHIGAN, USA
MICROMETERS	TRANSMITTANCE
2.02	0.776
2.0608	0.778
2.10159	0.79
2.14239	0.803
2.18319	0.808
2.22399	0.807
2.26478	0.805
2.30558	0.81
2.34638	0.819
2.38717	0.82
2.42797	0.827
2.46877	0.837
2.50956	0.839
2.55036	0.846
2.59116	0.854
2.63196	0.863
2.67275	0.87
2.71355	0.866
2.75435	0.866
2.79514	0.866
2.83594	0.866
2.87674	0.846
2.91754	0.827
2.95833	0.802
2.99913	0.755
3.03993	0.626
3.08072	0.474
3.12152	0.348
3.16232	0.264
3.20312	0.208
3.24391	0.165
3.28471	0.151
3.32551	0.139
3.3663	0.066
3.4071	0.023
3.4479	0.037
3.48869	0.054
3.52949	0.1
3.57029	0.262
3.61109	0.329
3.65188	0.325
3.69268	0.319
3.73348	0.37
3.77427	0.368
3.81507	0.313
3.85587	0.353
3.89667	0.412
3.93746	0.438
3.97826	0.431
4.01906	0.488
4.05985	0.561
4.10065	0.59
4.14145	0.634
4.18225	0.668
4.22304	0.706
4.26384	0.715
4.30464	0.725
4.34543	0.745
4.38623	0.795
4.42703	0.819
4.46782	0.834
4.50862	0.839
4.54942	0.836
4.59022	0.854
4.63101	0.878
4.67181	0.899
4.71261	0.902
4.7534	0.897
4.7942	0.906
4.835	0.911
4.8758	0.919
4.91659	0.916
4.95739	0.916
4.99819	0.926
5.03898	0.935
5.07978	0.938
5.12058	0.918
5.16138	0.918
5.20217	0.928
5.24297	0.926
5.28377	0.923
5.32456	0.921
5.36536	0.916
5.40616	0.907
5.44695	0.899
5.48775	0.887
5.52855	0.854
5.56935	0.802
5.61014	0.798
5.65094	0.75
5.69174	0.68
5.73253	0.561
5.77333	0.348
5.81413	0.093
5.85493	0.04
5.89572	0.063
5.93652	0.172
5.97732	0.327
6.01811	0.433
6.05891	0.465
6.09971	0.39
6.14051	0.476
6.1813	0.631
6.2221	0.726
6.2629	0.776
6.30369	0.802
6.34449	0.813
6.38529	0.825
6.42608	0.829
6.46688	0.822
6.50768	0.827
6.54848	0.839
6.58927	0.848
6.63007	0.839
6.67087	0.805
6.71166	0.745
6.75246	0.61
6.79326	0.303
6.83406	0.252
6.87485	0.221
6.91565	0.143
6.95645	0.192
6.99724	0.29
7.03804	0.305
7.07884	0.286
7.11964	0.366
7.16043	0.419
7.20123	0.46
7.24203	0.511
7.28282	0.631
7.32362	0.689
7.36442	0.72
7.40521	0.697
7.44601	0.636
7.48681	0.544
7.52761	0.486
7.5684	0.343
7.6092	0.197
7.65	0.22
7.69079	0.43
7.73159	0.551
7.77239	0.639
7.81319	0.735
7.85398	0.795
7.89478	0.827
7.93558	0.813
7.97637	0.74
8.01717	0.639
8.05797	0.607
8.09877	0.418
8.13956	0.302
8.18036	0.139
8.22116	0.095
8.26195	0.293
8.30275	0.476
8.34355	0.629
8.38434	0.696
8.42514	0.711
8.46594	0.639
8.50674	0.416
8.54753	0.199
8.58833	0.349
8.62913	0.561
8.66992	0.667
8.71072	0.732
8.75152	0.769
8.79232	0.788
8.83311	0.808
8.87391	0.81
8.91471	0.802
8.9555	0.793
8.9963	0.805
9.0371	0.81
9.0779	0.815
9.11869	0.827
9.15949	0.839
9.20029	0.848
9.24108	0.851
9.28188	0.853
9.32268	0.86
9.36347	0.86
9.40427	0.861
9.44507	0.865
9.48587	0.858
9.52666	0.856
9.56746	0.849
9.60826	0.843
9.64905	0.841
9.68985	0.841
9.73065	0.836
9.77145	0.831
9.81224	0.834
9.85304	0.844
9.89384	0.848
9.93463	0.848
9.97543	0.837
10.0162	0.791
10.057	0.592
10.0978	0.407
10.1386	0.431
10.1794	0.612
10.2202	0.662
10.261	0.689
10.3018	0.706
10.3426	0.679
10.3834	0.646
10.4242	0.614
10.465	0.58
10.5058	0.558
10.5466	0.498
10.5874	0.399
10.6282	0.286
10.669	0.399
10.7098	0.43
10.7506	0.39
10.7914	0.317
10.8322	0.238
10.873	0.175
10.9138	0.15
10.9546	0.141
10.9954	0.139
11.0362	0.168
11.077	0.213
11.1177	0.261
11.1585	0.315
11.1993	0.385
11.2401	0.441
11.2809	0.498
11.3217	0.551
11.3625	0.587
11.4033	0.61
11.4441	0.622
11.4849	0.634
11.5257	0.641
11.5665	0.651
11.6073	0.662
11.6481	0.674
11.6889	0.701
11.7297	0.728
11.7705	0.75
11.8113	0.767
11.8521	0.783
11.8929	0.8
11.9337	0.8
11.9745	0.8
12.0153	0.754
12.0561	0.677
12.0969	0.653
12.1377	0.747
12.1785	0.769
12.2193	0.723
12.2601	0.638
12.3009	0.677
12.3417	0.774
12.3825	0.825
12.4233	0.849
12.4641	0.868
12.5048	0.883
12.5456	0.895
12.5864	0.901
12.6272	0.907
12.668	0.911
12.7088	0.918
12.7496	0.919
12.7904	0.919
12.8312	0.919
12.872	0.921
12.9128	0.921
12.9536	0.921
12.9944	0.919
13.0352	0.918
13.076	0.919
13.1168	0.919
13.1576	0.924
13.1984	0.926
13.2392	0.931
13.28	0.933
13.3208	0.935
13.3616	0.935
13.4024	0.921
13.4432	0.909
13.484	0.865
13.5248	0.784
13.5656	0.655
13.6064	0.561
13.6472	0.595
13.688	0.667
13.7288	0.665
13.7696	0.592
13.8104	0.61
13.8512	0.711
13.892	0.783
13.9327	0.829
13.9735	0.865
14.0143	0.897
14.0551	0.911
14.0959	0.928
14.1367	0.938
14.1775	0.95
14.2183	0.957
14.2591	0.962
14.2999	0.964
14.3407	0.964
14.3815	0.964
14.4223	0.964
14.4631	0.962
14.5039	0.96
14.5447	0.959
14.5855	0.959
14.6263	0.952
14.6671	0.95
14.7079	0.945
14.7487	0.948
14.7895	0.941
14.8303	0.935
14.8711	0.933
14.9119	0.933
14.9527	0.926
14.9935	0.906
15.0343	0.866
15.0751	0.843
15.1159	0.863
15.1567	0.889
15.1975	0.89
15.2383	0.872
15.2791	0.863
15.3198	0.853
15.3606	0.837
15.4014	0.825
15.4422	0.813
15.483	0.803
15.5238	0.786
15.5646	0.773
15.6054	0.771
15.6462	0.759
15.687	0.73
15.7278	0.701
15.7686	0.672
15.8094	0.636
15.8502	0.581
15.891	0.554
15.9318	0.522
15.9726	0.513
