Infrared Spectrum: TRIETHYLBORANE
Formula: C6 H15 B
CAS: 97-94-9
State: VAPOR AT 55 mmHg PRESSURE;
Class: COBLENTZ
Instrument: Not specified, most likely a prism, grating, or hybrid spectrometer.
Sampling: TRANSMISSION
Path length: 10 CM
Resolution: 4
Origin: KALLERY CHEMICAL COMPANY
MICROMETERS	TRANSMITTANCE
2.006	0.743
2.04077	0.743
2.07553	0.743
2.1103	0.746
2.14506	0.746
2.17983	0.748
2.21459	0.753
2.24936	0.755
2.28412	0.741
2.31889	0.71
2.35365	0.707
2.38842	0.714
2.42319	0.726
2.45795	0.731
2.49272	0.733
2.52748	0.736
2.56225	0.738
2.59701	0.741
2.63178	0.746
2.66654	0.755
2.70131	0.764
2.73607	0.769
2.77084	0.772
2.80561	0.772
2.84037	0.772
2.87514	0.769
2.9099	0.767
2.94467	0.765
2.97943	0.765
3.0142	0.765
3.04896	0.762
3.08373	0.755
3.11849	0.746
3.15326	0.712
3.18803	0.678
3.22279	0.667
3.25756	0.669
3.29232	0.566
3.32709	0.32
3.36185	0.089
3.39662	0.034
3.43138	0.032
3.46615	0.034
3.50091	0.13
3.53568	0.309
3.57045	0.442
3.60521	0.519
3.63998	0.583
3.67474	0.628
3.70951	0.681
3.74427	0.722
3.77904	0.738
3.8138	0.746
3.84857	0.748
3.88333	0.752
3.9181	0.76
3.95287	0.765
3.98763	0.767
4.0224	0.771
4.05716	0.771
4.09193	0.769
4.12669	0.767
4.16146	0.765
4.19622	0.767
4.23099	0.771
4.26575	0.772
4.30052	0.777
4.33529	0.779
4.37005	0.781
4.40482	0.781
4.43958	0.781
4.47435	0.779
4.50911	0.776
4.54388	0.776
4.57864	0.776
4.61341	0.774
4.64817	0.776
4.68294	0.774
4.7177	0.774
4.75247	0.774
4.78724	0.776
4.822	0.776
4.85677	0.776
4.89153	0.776
4.9263	0.776
4.96106	0.776
4.99583	0.776
5.03059	0.774
5.06536	0.774
5.10012	0.774
5.13489	0.771
5.16966	0.767
5.20442	0.765
5.23919	0.764
5.27395	0.764
5.30872	0.764
5.34348	0.765
5.37825	0.767
5.41301	0.772
5.44778	0.774
5.48254	0.776
5.51731	0.777
5.55208	0.779
5.58684	0.779
5.62161	0.779
5.65637	0.779
5.69114	0.779
5.7259	0.779
5.76067	0.777
5.79543	0.777
5.8302	0.777
5.86496	0.777
5.89973	0.779
5.9345	0.779
5.96926	0.779
6.00403	0.772
6.03879	0.769
6.07356	0.765
6.10832	0.76
6.14309	0.757
6.17785	0.757
6.21262	0.755
6.24738	0.755
6.28215	0.755
6.31692	0.753
6.35168	0.752
6.38645	0.748
6.42121	0.743
6.45598	0.738
6.49074	0.724
6.52551	0.709
6.56027	0.697
6.59504	0.683
6.6298	0.647
6.66457	0.586
6.69934	0.464
6.7341	0.254
6.76887	0.137
6.80363	0.084
6.8384	0.108
6.87316	0.223
6.90793	0.304
6.94269	0.352
6.97746	0.392
7.01222	0.433
7.04699	0.456
7.08176	0.45
7.11652	0.383
7.15129	0.316
7.18605	0.316
7.22082	0.332
7.25558	0.375
7.29035	0.404
7.32511	0.376
7.35988	0.296
7.39464	0.182
7.42941	0.101
7.46418	0.036
7.49894	0.022
7.53371	0.017
7.56847	0.022
7.60324	0.029
7.638	0.044
7.67277	0.063
7.70753	0.089
7.7423	0.113
7.77706	0.154
7.81183	0.189
7.8466	0.228
7.88136	0.273
7.91613	0.342
7.95089	0.414
7.98566	0.464
8.02042	0.506
8.05519	0.538
8.08995	0.567
8.12472	0.598
8.15948	0.619
8.19425	0.636
8.22902	0.65
8.26378	0.654
8.29855	0.655
8.33331	0.652
8.36808	0.648
8.40284	0.638
8.43761	0.624
8.47237	0.6
8.50714	0.571
8.5419	0.535
8.57667	0.476
8.61144	0.411
8.6462	0.335
8.68097	0.261
8.71573	0.206
8.7505	0.153
8.78526	0.103
8.82003	0.074
8.85479	0.055
8.88956	0.043
8.92432	0.041
8.95909	0.048
8.99386	0.08
9.02862	0.141
9.06339	0.189
9.09815	0.263
9.13292	0.337
9.16768	0.421
9.20245	0.497
9.23721	0.538
9.27198	0.555
9.30674	0.569
9.34151	0.581
9.37627	0.595
9.41104	0.605
9.44581	0.617
9.48057	0.619
9.51534	0.617
9.5501	0.611
9.58487	0.586
9.61963	0.523
9.6544	0.456
9.68916	0.425
9.72393	0.413
9.75869	0.406
9.79346	0.411
9.82823	0.419
9.86299	0.432
9.89776	0.464
9.93252	0.485
9.96729	0.504
10.0021	0.516
10.0368	0.524
10.0716	0.528
10.1063	0.521
10.1411	0.516
10.1759	0.507
10.2106	0.497
10.2454	0.488
10.2802	0.483
10.3149	0.48
10.3497	0.476
10.3845	0.471
10.4192	0.468
10.454	0.462
10.4888	0.454
10.5235	0.437
10.5583	0.419
10.5931	0.39
10.6278	0.344
10.6626	0.314
10.6974	0.23
10.7321	0.137
10.7669	0.096
10.8017	0.079
10.8364	0.075
10.8712	0.075
10.906	0.08
10.9407	0.094
10.9755	0.117
11.0103	0.156
11.045	0.192
11.0798	0.218
11.1145	0.249
11.1493	0.302
11.1841	0.354
11.2188	0.392
11.2536	0.437
11.2884	0.488
11.3231	0.531
11.3579	0.581
11.3927	0.609
11.4274	0.631
11.4622	0.654
11.497	0.666
11.5317	0.685
11.5665	0.7
11.6013	0.71
11.636	0.722
11.6708	0.729
11.7056	0.738
11.7403	0.746
11.7751	0.752
11.8099	0.757
11.8446	0.764
11.8794	0.769
11.9142	0.772
11.9489	0.776
11.9837	0.781
12.0184	0.783
12.0532	0.786
12.088	0.788
12.1227	0.79
12.1575	0.79
12.1923	0.79
12.227	0.79
12.2618	0.788
12.2966	0.786
12.3313	0.783
12.3661	0.779
12.4009	0.772
12.4356	0.762
12.4704	0.748
12.5052	0.733
12.5399	0.71
12.5747	0.686
12.6095	0.659
12.6442	0.628
12.679	0.597
12.7138	0.566
12.7485	0.54
12.7833	0.514
12.8181	0.492
12.8528	0.478
12.8876	0.487
12.9224	0.509
12.9571	0.514
12.9919	0.519
13.0266	0.524
13.0614	0.54
13.0962	0.554
13.1309	0.571
13.1657	0.59
13.2005	0.607
13.2352	0.626
13.27	0.647
13.3048	0.667
13.3395	0.688
13.3743	0.703
13.4091	0.721
13.4438	0.734
13.4786	0.748
13.5134	0.76
13.5481	0.769
13.5829	0.779
13.6177	0.786
13.6524	0.793
13.6872	0.8
13.722	0.807
13.7567	0.814
13.7915	0.817
13.8263	0.822
13.861	0.826
13.8958	0.827
13.9305	0.831
13.9653	0.831
14.0001	0.831
14.0348	0.834
14.0696	0.836
14.1044	0.836
14.1391	0.839
14.1739	0.841
14.2087	0.845
14.2434	0.846
14.2782	0.848
14.313	0.851
14.3477	0.853
14.3825	0.855
14.4173	0.857
14.452	0.858
14.4868	0.86
14.5216	0.864
14.5563	0.864
14.5911	0.865
14.6259	0.867
14.6606	0.867
14.6954	0.869
14.7302	0.87
14.7649	0.87
14.7997	0.872
14.8345	0.874
14.8692	0.876
14.904	0.876
14.9387	0.876
14.9735	0.876
15.0083	0.876
15.043	0.876
15.0778	0.876
15.1126	0.876
15.1473	0.876
15.1821	0.876
15.2169	0.876
15.2516	0.876
15.2864	0.876
15.3212	0.876
15.3559	0.876
15.3907	0.876
15.4255	0.874
15.4602	0.872
15.495	0.87
