Infrared Spectrum: Chloroacetaldehyde dimethylacetal
Formula: C 4 H 9 Cl O 2
CAS: 97-97-2
State: gas
Instrument: HP-GC/MS/IRD
Origin: NIST Mass Spectrometry Data Center
1/CM	ABSORBANCE
550	0.00291
562	0.0019788
574	0.0004656
586	1.94e-05
598	5.82e-05
610	0.0003104
622	0.0008342
634	0.000873
646	0.0008148
658	0.0008148
670	0.000776
682	0.0007954
694	0.000873
706	0.001358
718	0.0020564
730	0.0026384
742	0.005529
754	0.016005
766	0.0395178
778	0.0498774
790	0.0265392
802	0.010476
814	0.0109416
826	0.011543
838	0.007469
850	0.0034144
862	0.0020564
874	0.0020952
886	0.0032398
898	0.0053932
910	0.0074884
922	0.0077988
934	0.0087494
946	0.0140844
958	0.0238232
970	0.0302446
982	0.0269272
994	0.0245992
1006	0.028033
1018	0.028809
1030	0.0313116
1042	0.049858
1054	0.090889
1066	0.150719
1078	0.19076
1090	0.180789
1102	0.142939
1114	0.126895
1126	0.142939
1138	0.124975
1150	0.0788998
1162	0.0593252
1174	0.0641558
1186	0.0683268
1198	0.0597714
1210	0.046172
1222	0.036472
1234	0.0293522
1246	0.0224264
1258	0.0168392
1270	0.0115236
1282	0.007275
1294	0.0058976
1306	0.0053932
1318	0.0058588
1330	0.0083226
1342	0.015326
1354	0.0259378
1366	0.0299924
1378	0.023377
1390	0.0132114
1402	0.0069064
1414	0.0074884
1426	0.0160438
1438	0.0226592
1450	0.022116
1462	0.017848
1474	0.0127846
1486	0.008633
1498	0.0054902
1510	0.0038412
1522	0.0030458
1534	0.0027354
1546	0.002522
1558	0.0022698
1570	0.0021146
1582	0.0019594
1594	0.0016878
1606	0.0014744
1618	0.0013774
1630	0.0012222
1642	0.001067
1654	0.0008536
1666	0.000679
1678	0.0005626
1690	0.000485
1702	0.0003686
1714	0.0002716
1726	0.0002134
1738	0.0001358
1750	0.0001164
1762	7.76e-05
1774	1.94e-05
1786	3.88e-05
1798	5.82e-05
1810	0.0001164
1822	0.0001746
1834	0.000194
1846	0.0002328
1858	0.0003686
1870	0.000485
1882	0.0006208
1894	0.0007566
1906	0.0009506
1918	0.0010088
1930	0.0011058
1942	0.0011834
1954	0.0013192
1966	0.001358
1978	0.0013192
1990	0.0013774
2002	0.0015132
2014	0.001649
2026	0.0018042
2038	0.0019594
2050	0.0020176
2062	0.0019012
2074	0.0017266
2086	0.0016878
2098	0.0016684
2110	0.0015908
2122	0.0014938
2134	0.001455
2146	0.0014162
2158	0.0012804
2170	0.001067
2182	0.000873
2194	0.0006402
2206	0.000485
2218	0.000388
2230	0.0003492
2242	0.000388
2254	0.000388
2266	0.0003104
2278	0.0002328
2290	0.0002134
2302	0.0002328
2314	0.000194
2326	0.0002134
2338	0.0001552
2350	0.0001552
2362	9.7e-05
2374	0.0001552
2386	0.0001552
2398	0.0001746
2410	0.0002328
2422	0.0002522
2434	0.0001746
2446	0.0001164
2458	9.7e-05
2470	5.82e-05
2482	3.88e-05
2494	3.88e-05
2506	7.76e-05
2518	9.7e-05
2530	0.0001746
2542	0.000194
2554	0.0002716
2566	0.000388
2578	0.0005626
2590	0.000776
2602	0.00097
2614	0.0011058
2626	0.0012804
2638	0.0014744
2650	0.0018042
2662	0.0021728
2674	0.0024638
2686	0.0023474
2698	0.002037
2710	0.0019012
2722	0.0020952
2734	0.0023862
2746	0.0026578
2758	0.0028712
2770	0.0034338
2782	0.0046948
2794	0.0069064
2806	0.0108446
2818	0.019109
2830	0.0368988
2842	0.0511578
2854	0.0425054
2866	0.0309236
2878	0.0278778
2890	0.0293716
2902	0.0380434
2914	0.0529038
2926	0.0654362
2938	0.0700922
2950	0.0671046
2962	0.0615562
2974	0.0550378
2986	0.0473554
2998	0.0439216
3010	0.0381404
3022	0.02619
3034	0.0169362
3046	0.0118728
3058	0.0095642
3070	0.0080898
3082	0.006693
3094	0.005335
3106	0.0041128
3118	0.0030458
3130	0.0022698
3142	0.0016296
3154	0.0012028
3166	0.0009506
3178	0.0006984
3190	0.0005238
3202	0.000388
3214	0.0003298
3226	0.0002716
3238	0.0002328
3250	0.0002134
3262	0.000194
3274	9.7e-05
3286	0.0001552
3298	0.0001164
3310	0.0001164
3322	0.0001358
3334	9.7e-05
3346	7.76e-05
3358	3.88e-05
3370	7.76e-05
3382	9.7e-05
3394	7.76e-05
3406	1.94e-05
3418	7.76e-05
3430	3.88e-05
3442	9.7e-05
3454	0
3466	3.88e-05
3478	5.82e-05
3490	3.88e-05
3502	7.76e-05
3514	9.7e-05
3526	5.82e-05
3538	5.82e-05
3550	9.7e-05
3562	5.82e-05
3574	3.88e-05
3586	0
3598	9.7e-05
3610	9.7e-05
3622	3.88e-05
3634	9.7e-05
3646	1.94e-05
3658	0.0001164
3670	7.76e-05
3682	9.7e-05
3694	0.0001552
3706	0.0001552
3718	0.0001552
3730	0.000194
3742	0.000291
3754	0.0003492
3766	0.0003104
3778	0.000291
3790	0.0003104
3802	0.0003686
3814	0.000291
3826	0.0003104
3838	0.0003492
