Infrared Spectrum: 1-BENZYL-3-(1,2-DICARBETHOXYETHYL)UREA
Formula: C16 H22 N2 O5
CAS: 97021-39-1
State: SOLID (KBr PRESSING)
Melting point: 82 C
Class: COBLENTZ
Instrument: Not specified, most likely a prism, grating, or hybrid spectrometer.
Sampling: TRANSMISSION
Resolution: 4
Origin: EASTMAN KODAK COMPANY, RESEARCH LABORATORIES, ROCHESTER, N.Y.
MICROMETERS	TRANSMITTANCE
2.032	0.501
2.06708	0.501
2.10216	0.505
2.13723	0.51
2.17231	0.513
2.20739	0.515
2.24247	0.522
2.27754	0.529
2.31262	0.538
2.3477	0.55
2.38278	0.546
2.41786	0.559
2.45293	0.564
2.48801	0.571
2.52309	0.576
2.55817	0.588
2.59325	0.6
2.62832	0.607
2.6634	0.609
2.69848	0.611
2.73356	0.607
2.76863	0.602
2.80371	0.572
2.83879	0.546
2.87387	0.52
2.90895	0.487
2.94402	0.395
2.9791	0.137
3.01418	0.152
3.04926	0.31
3.08434	0.486
3.11941	0.562
3.15449	0.604
3.18957	0.612
3.22465	0.612
3.25972	0.609
3.2948	0.583
3.32988	0.519
3.36496	0.331
3.40004	0.444
3.43511	0.512
3.47019	0.541
3.50527	0.657
3.54035	0.692
3.57543	0.701
3.6105	0.725
3.64558	0.737
3.68066	0.746
3.71574	0.755
3.75081	0.762
3.78589	0.77
3.82097	0.77
3.85605	0.772
3.89113	0.779
3.9262	0.782
3.96128	0.793
3.99636	0.802
4.03144	0.807
4.06652	0.819
4.10159	0.819
4.13667	0.819
4.17175	0.819
4.20683	0.821
4.2419	0.824
4.27698	0.833
4.31206	0.848
4.34714	0.85
4.38222	0.847
4.41729	0.843
4.45237	0.845
4.48745	0.85
4.52253	0.861
4.55761	0.859
4.59268	0.869
4.62776	0.866
4.66284	0.866
4.69792	0.869
4.73299	0.871
4.76807	0.875
4.80315	0.871
4.83823	0.871
4.87331	0.871
4.90838	0.875
4.94346	0.883
4.97854	0.89
5.01362	0.89
5.0487	0.888
5.08377	0.875
5.11885	0.861
5.15393	0.871
5.18901	0.881
5.22408	0.888
5.25916	0.881
5.29424	0.876
5.32932	0.862
5.3644	0.873
5.39947	0.88
5.43455	0.876
5.46963	0.868
5.50471	0.85
5.53979	0.815
5.57486	0.8
5.60994	0.722
5.64502	0.585
5.6801	0.203
5.71517	0.059
5.75025	0.144
5.78533	0.131
5.82041	0.423
5.85549	0.623
5.89056	0.718
5.92564	0.732
5.96072	0.722
5.9958	0.682
6.03087	0.579
6.06595	0.519
6.10103	0.215
6.13611	0.019
6.17119	0.022
6.20626	0.225
6.24134	0.376
6.27642	0.22
6.3115	0.053
6.34658	0.053
6.38165	0.184
6.41673	0.241
6.45181	0.406
6.48689	0.47
6.52196	0.588
6.55704	0.597
6.59212	0.609
6.6272	0.651
6.66228	0.736
6.69735	0.73
6.73243	0.8
6.76751	0.76
6.80259	0.447
6.83767	0.52
6.87274	0.557
6.90782	0.6
6.9429	0.767
6.97798	0.81
7.01305	0.833
7.04813	0.814
7.08321	0.491
7.11829	0.411
7.15337	0.576
7.18844	0.586
7.22352	0.611
7.2586	0.48
7.29368	0.402
7.32876	0.463
7.36383	0.673
7.39891	0.451
7.43399	0.661
7.46907	0.642
7.50414	0.369
7.53922	0.328
7.5743	0.503
7.60938	0.656
7.64446	0.659
7.67953	0.555
7.71461	0.532
7.74969	0.5
7.78477	0.496
7.81985	0.538
7.85492	0.611
7.89	0.649
7.92508	0.654
7.96016	0.631
7.99523	0.552
8.03031	0.513
8.06539	0.513
8.10047	0.524
8.13555	0.477
8.17062	0.39
8.2057	0.256
8.24078	0.114
8.27586	0.05
8.31094	0.041
8.34601	0.041
8.38109	0.041
8.41617	0.057
8.45125	0.107
8.48632	0.168
8.5214	0.204
8.55648	0.25
8.59156	0.298
8.62664	0.413
8.66171	0.543
8.69679	0.673
8.73187	0.772
8.76695	0.807
8.80203	0.833
8.8371	0.843
8.87218	0.843
8.90726	0.809
8.94234	0.772
8.97741	0.76
9.01249	0.713
9.04757	0.588
9.08265	0.529
9.11773	0.572
9.1528	0.699
9.18788	0.817
9.22296	0.809
9.25804	0.782
9.29312	0.786
9.32819	0.781
9.36327	0.725
9.39835	0.618
9.43343	0.536
9.4685	0.399
9.50358	0.345
9.53866	0.446
9.57374	0.572
9.60882	0.661
9.64389	0.607
9.67897	0.493
9.71405	0.496
9.74913	0.532
9.7842	0.569
9.81928	0.588
9.85436	0.628
9.88944	0.71
9.92452	0.762
9.95959	0.793
9.99467	0.815
10.0297	0.838
10.0648	0.84
10.0999	0.855
10.135	0.843
10.1701	0.864
10.2051	0.857
10.2402	0.855
10.2753	0.824
10.3104	0.782
10.3455	0.763
10.3805	0.737
10.4156	0.725
10.4507	0.765
10.4858	0.822
10.5208	0.866
10.5559	0.868
10.591	0.901
10.6261	0.899
10.6612	0.902
10.6962	0.913
10.7313	0.909
10.7664	0.928
10.8015	0.909
10.8365	0.916
10.8716	0.902
10.9067	0.892
10.9418	0.852
10.9769	0.814
11.0119	0.815
11.047	0.829
11.0821	0.85
11.1172	0.838
11.1522	0.833
11.1873	0.854
11.2224	0.843
11.2575	0.875
11.2926	0.875
11.3276	0.859
11.3627	0.864
11.3978	0.848
11.4329	0.819
11.4679	0.755
11.503	0.732
11.5381	0.793
11.5732	0.84
11.6083	0.871
11.6433	0.897
11.6784	0.894
11.7135	0.887
11.7486	0.89
11.7836	0.84
11.8187	0.854
11.8538	0.899
11.8889	0.913
11.924	0.916
11.959	0.94
11.9941	0.937
12.0292	0.925
12.0643	0.94
12.0993	0.928
12.1344	0.911
12.1695	0.902
12.2046	0.868
12.2397	0.861
12.2747	0.887
12.3098	0.892
12.3449	0.892
12.38	0.911
12.415	0.909
12.4501	0.897
12.4852	0.899
12.5203	0.895
12.5554	0.885
12.5904	0.894
12.6255	0.899
12.6606	0.894
12.6957	0.894
12.7307	0.902
12.7658	0.901
12.8009	0.892
12.836	0.89
12.8711	0.852
12.9061	0.817
12.9412	0.821
12.9763	0.852
13.0114	0.85
13.0464	0.831
13.0815	0.782
13.1166	0.635
13.1517	0.496
13.1868	0.472
13.2218	0.546
13.2569	0.645
13.292	0.739
13.3271	0.805
13.3621	0.835
13.3972	0.843
13.4323	0.855
13.4674	0.866
13.5025	0.864
13.5375	0.852
13.5726	0.852
13.6077	0.861
13.6428	0.854
13.6778	0.842
13.7129	0.842
13.748	0.848
13.7831	0.85
13.8182	0.845
13.8532	0.842
13.8883	0.852
13.9234	0.842
13.9585	0.831
13.9935	0.824
14.0286	0.807
14.0637	0.786
14.0988	0.743
14.1339	0.696
14.1689	0.64
14.204	0.565
14.2391	0.463
14.2742	0.348
14.3092	0.296
14.3443	0.3
14.3794	0.399
14.4145	0.508
14.4496	0.588
14.4846	0.642
14.5197	0.654
14.5548	0.668
14.5899	0.67
14.6249	0.67
14.66	0.67
14.6951	0.666
14.7302	0.657
14.7653	0.651
14.8003	0.635
14.8354	0.631
14.8705	0.625
14.9056	0.607
14.9406	0.593
14.9757	0.586
15.0108	0.586
15.0459	0.574
15.081	0.564
15.116	0.553
15.1511	0.546
15.1862	0.531
15.2213	0.52
15.2563	0.512
15.2914	0.501
15.3265	0.494
15.3616	0.493
15.3967	0.491
15.4317	0.489
15.4668	0.487
15.5019	0.486
15.537	0.484
15.5721	0.482
15.6071	0.48
15.6422	0.479
15.6773	0.48
15.7124	0.486
15.7474	0.5
15.7825	0.503
15.8176	0.503
15.8527	0.505
15.8878	0.506
15.9228	0.512
15.9579	0.519
15.993	0.536
