Infrared Spectrum: Cyclohexanecarboxylic acid, 1,3,4,5-tetrahydroxy-, Gamma-lactone, triacetate
Formula: C13 H16 O8
CAS: 97101-00-3
State: SOLID (OIL MULL)
Class: COBLENTZ III
Instrument: CARY 90 (GRATING)
Instrument parameters: GRATING CHANGES: 3000, 2000, 1200 CM^-^1
Sampling: TRANSMISSION
Resolution: 2
Origin: WESTERN REGIONAL RES. USDA
1/CM	TRANSMITTANCE
475	0.8034
484	0.8154
493	0.8239
502	0.8418
511	0.8758
520	0.8761
529	0.8671
538	0.8541
547	0.8608
556	0.8541
565	0.8598
574	0.7198
583	0.8611
592	0.8349
601	0.7666
610	0.6776
619	0.8302
628	0.7962
637	0.7431
646	0.8515
655	0.6975
664	0.8627
673	0.8765
682	0.8798
691	0.8518
700	0.8749
709	0.8837
718	0.8649
727	0.8525
736	0.8103
745	0.8092
754	0.7396
763	0.8515
772	0.608
781	0.8793
790	0.8887
799	0.891
808	0.8927
817	0.8877
826	0.8817
835	0.8655
844	0.7905
853	0.8684
862	0.8729
871	0.8468
880	0.6214
889	0.803
898	0.5754
907	0.8186
916	0.6708
925	0.7268
934	0.8016
943	0.5704
952	0.4715
961	0.7938
970	0.7161
979	0.5205
988	0.6349
997	0.7317
1006	0.6499
1015	0.6087
1024	0.5532
1033	0.2461
1042	0.3077
1051	0.1089
1060	0.0722
1069	0.0812
1078	0.2119
1087	0.569
1096	0.7088
1105	0.7632
1114	0.7645
1123	0.7448
1132	0.4809
1141	0.3467
1150	0.5942
1159	0.5417
1168	0.5625
1177	0.3776
1186	0.4342
1195	0.3003
1204	0.0602
1213	0.0241
1222	0.0175
1231	0.0654
1240	0.1358
1249	0.1739
1258	0.152
1267	0.2862
1276	0.5489
1285	0.64
1294	0.6504
1303	0.6307
1312	0.5523
1321	0.5878
1330	0.698
1339	0.6498
1348	0.5288
1357	0.4431
1366	0.2005
1375	0.2674
1384	0.4436
1393	0.5635
1402	0.7057
1411	0.7129
1420	0.676
1429	0.6126
1438	0.477
1447	0.3985
1456	0.3847
1465	0.3759
1474	0.6275
1483	0.7578
1492	0.8022
1501	0.8123
1510	0.8186
1519	0.8229
1528	0.8248
1537	0.8263
1546	0.8276
1555	0.8307
1564	0.8377
1573	0.8444
1582	0.8471
1591	0.8481
1600	0.8487
1609	0.8481
1618	0.8453
1627	0.8356
1636	0.8244
1645	0.8145
1654	0.8107
1663	0.8121
1672	0.8128
1681	0.7936
1690	0.7659
1699	0.7364
1708	0.6856
1717	0.6417
1726	0.6054
1735	0.466
1744	0.1759
1753	0.0151
1762	0.0439
1771	0.2434
1780	0.4428
1789	0.2888
1798	0.0219
1807	0.2238
1816	0.4106
1825	0.6079
1834	0.6903
1843	0.738
1852	0.7681
1861	0.7917
1870	0.8115
1879	0.8248
1888	0.835
1897	0.8386
1906	0.8423
1915	0.8459
1924	0.8483
1933	0.8499
1942	0.8512
1951	0.8524
1960	0.8536
1969	0.855
1978	0.8569
1987	0.8588
1996	0.859
2005	0.8553
2014	0.8532
2023	0.8528
2032	0.8535
2041	0.8555
2050	0.857
2059	0.8573
2068	0.857
2077	0.8555
2086	0.8537
2095	0.8515
2104	0.849
2113	0.8466
2122	0.8462
2131	0.8469
2140	0.85
2149	0.8533
2158	0.857
2167	0.8609
2176	0.8645
2185	0.8657
2194	0.8665
2203	0.8667
2212	0.8669
2221	0.867
2230	0.8671
2239	0.8671
2248	0.8672
2257	0.8672
2266	0.8672
2275	0.8671
2284	0.8673
2293	0.8675
2302	0.8677
2311	0.8679
2320	0.8682
2329	0.8684
2338	0.8686
2347	0.8688
2356	0.869
2365	0.8691
2374	0.8684
2383	0.8677
2392	0.867
2401	0.8662
2410	0.8655
2419	0.8649
2428	0.8642
2437	0.8644
2446	0.8658
2455	0.867
2464	0.8678
2473	0.8685
2482	0.8693
2491	0.8693
2500	0.869
2509	0.8687
2518	0.8685
2527	0.8673
2536	0.8661
2545	0.8648
2554	0.8636
2563	0.8624
2572	0.8607
2581	0.8589
2590	0.8571
2599	0.8554
2608	0.854
2617	0.8525
2626	0.8511
2635	0.8495
2644	0.8479
2653	0.8462
2662	0.8446
2671	0.843
2680	0.8418
2689	0.8405
2698	0.8394
2707	0.8381
2716	0.8377
2725	0.8377
2734	0.8381
2743	0.8422
2752	0.8448
2761	0.8453
2770	0.8418
2779	0.8374
2788	0.8276
2797	0.8135
2806	0.7953
2815	0.7738
2824	0.7498
2833	0.7065
2842	0.3396
2851	0.2456
2860	0.1705
2869	0.1835
2878	0.1997
2887	0.2907
2896	0.2738
2905	0.1965
2914	0.1203
2923	0.0543
2932	0.0553
2941	0.0853
2950	0.1044
2959	0.0643
2968	0.1175
2977	0.3057
2986	0.5499
2995	0.635
3004	0.7025
3013	0.7146
3022	0.7326
3031	0.7711
3040	0.7946
3049	0.8084
3058	0.8146
3067	0.8191
3076	0.8222
3085	0.8243
3094	0.8261
3103	0.8272
3112	0.8284
3121	0.8293
3130	0.8298
3139	0.8302
3148	0.8297
3157	0.8282
3166	0.8268
3175	0.8252
3184	0.8233
3193	0.8213
3202	0.8195
3211	0.8178
3220	0.8158
3229	0.8131
3238	0.8103
3247	0.8086
3256	0.8088
3265	0.8106
3274	0.8135
3283	0.8162
3292	0.8156
3301	0.813
3310	0.8071
3319	0.8009
3328	0.7942
3337	0.7897
3346	0.7881
3355	0.7892
3364	0.792
3373	0.7962
3382	0.7999
3391	0.8026
3400	0.8049
3409	0.8064
3418	0.8075
3427	0.8081
3436	0.8088
3445	0.8076
3454	0.8065
3463	0.8043
3472	0.8012
3481	0.7968
3490	0.7921
3499	0.7991
3508	0.8127
3517	0.8241
3526	0.8315
3535	0.8364
3544	0.8399
3553	0.8419
3562	0.8435
3571	0.8449
3580	0.8439
3589	0.8408
3598	0.8345
3607	0.8503
3616	0.8613
3625	0.8671
3634	0.8712
3643	0.8747
3652	0.8777
3661	0.8787
3670	0.8793
3679	0.8799
3688	0.8806
3697	0.8814
3706	0.8822
3715	0.8829
3724	0.8837
3733	0.884
3742	0.8845
3751	0.8848
3760	0.8853
3769	0.8856
3778	0.8856
3787	0.8852
3796	0.8849
3805	0.8846
3814	0.8843
3823	0.8839
3832	0.8836
3841	0.8832
3850	0.8826
3859	0.8819
3868	0.8813
3877	0.8807
3886	0.8801
3895	0.8797
3904	0.8795
3913	0.8792
3922	0.879
3931	0.8788
3940	0.8785
3949	0.8781
3958	0.8779
3967	0.8775
3976	0.8771
3985	0.8766
3994	0.8762
