Infrared Spectrum: PROPIONIC ACID, (2,2,4,4-TETRAMETHYLCYCLOBUTANE DIOXY)BIS-
Formula: C14 H24 O6
CAS: 97175-20-7
State: SOLID (KBr PELLET)
Melting point: 100-102 C
Class: COBLENTZ
Instrument: Not specified, most likely a prism, grating, or hybrid spectrometer.
Sampling: TRANSMISSION
Resolution: 4
Origin: TENNESSEE EASTMAN COMPANY, RESEARCH LABORATORIES
MICROMETERS	TRANSMITTANCE
2.034	0.741
2.0748	0.743
2.11559	0.748
2.15639	0.753
2.19719	0.757
2.23799	0.757
2.27878	0.758
2.31958	0.764
2.36038	0.769
2.40117	0.774
2.44197	0.775
2.48277	0.782
2.52356	0.789
2.56436	0.796
2.60516	0.796
2.64596	0.801
2.68675	0.801
2.72755	0.804
2.76835	0.799
2.80914	0.789
2.84994	0.769
2.89074	0.755
2.93154	0.748
2.97233	0.738
3.01313	0.716
3.05393	0.675
3.09472	0.624
3.13552	0.56
3.17632	0.499
3.21712	0.434
3.25791	0.4
3.29871	0.378
3.33951	0.293
3.3803	0.195
3.4211	0.249
3.4619	0.219
3.50269	0.475
3.54349	0.507
3.58429	0.514
3.62509	0.526
3.66588	0.561
3.70668	0.565
3.74748	0.541
3.78827	0.57
3.82907	0.609
3.86987	0.626
3.91067	0.629
3.95146	0.65
3.99226	0.724
4.03306	0.753
4.07385	0.775
4.11465	0.784
4.15545	0.811
4.19625	0.83
4.23704	0.84
4.27784	0.837
4.31864	0.837
4.35943	0.862
4.40023	0.872
4.44103	0.877
4.48182	0.881
4.52262	0.879
4.56342	0.881
4.60422	0.887
4.64501	0.896
4.68581	0.899
4.72661	0.899
4.7674	0.899
4.8082	0.903
4.849	0.904
4.8898	0.903
4.93059	0.903
4.97139	0.903
5.01219	0.903
5.05298	0.899
5.09378	0.899
5.13458	0.899
5.17538	0.899
5.21617	0.899
5.25697	0.899
5.29777	0.899
5.33856	0.899
5.37936	0.896
5.42016	0.891
5.46095	0.886
5.50175	0.872
5.54255	0.869
5.58335	0.847
5.62414	0.825
5.66494	0.784
5.70574	0.731
5.74653	0.572
5.78733	0.123
5.82813	0.052
5.86893	0.215
5.90972	0.456
5.95052	0.651
5.99132	0.76
6.03211	0.811
6.07291	0.82
6.11371	0.853
6.15451	0.872
6.1953	0.882
6.2361	0.901
6.2769	0.915
6.31769	0.918
6.35849	0.916
6.39929	0.915
6.44008	0.911
6.48088	0.908
6.52168	0.908
6.56248	0.899
6.60327	0.891
6.64407	0.882
6.68487	0.879
6.72566	0.828
6.76646	0.531
6.80726	0.477
6.84806	0.55
6.88885	0.565
6.92965	0.556
6.97045	0.398
7.01124	0.419
7.05204	0.604
7.09284	0.626
7.13364	0.536
7.17443	0.38
7.21523	0.66
7.25603	0.77
7.29682	0.689
7.33762	0.636
7.37842	0.541
7.41921	0.567
7.46001	0.628
7.50081	0.835
7.54161	0.884
7.5824	0.896
7.6232	0.889
7.664	0.85
7.70479	0.765
7.74559	0.765
7.78639	0.801
7.82719	0.786
7.86798	0.66
7.90878	0.351
7.94958	0.222
7.99037	0.162
8.03117	0.123
8.07197	0.417
8.11276	0.482
8.15356	0.609
8.19436	0.499
8.23516	0.208
8.27595	0.47
8.31675	0.555
8.35755	0.606
8.39834	0.694
8.43914	0.747
8.47994	0.787
8.52074	0.808
8.56153	0.808
8.60233	0.813
8.64313	0.818
8.68392	0.818
8.72472	0.808
8.76552	0.774
8.80632	0.706
8.84711	0.646
8.88791	0.485
8.92871	0.246
8.9695	0.078
9.0103	0.073
9.0511	0.22
9.09189	0.463
9.13269	0.607
9.17349	0.668
9.21429	0.648
9.25508	0.434
9.29588	0.232
9.33668	0.412
9.37747	0.623
9.41827	0.716
9.45907	0.719
9.49987	0.643
9.54066	0.37
9.58146	0.497
9.62226	0.719
9.66305	0.787
9.70385	0.83
9.74465	0.852
9.78545	0.864
9.82624	0.864
9.86704	0.864
9.90784	0.865
9.94863	0.87
9.98943	0.87
10.0302	0.869
10.071	0.869
10.1118	0.869
10.1526	0.869
10.1934	0.859
10.2342	0.826
10.275	0.818
10.3158	0.814
10.3566	0.794
10.3974	0.765
10.4382	0.716
10.479	0.66
10.5198	0.609
10.5606	0.57
10.6014	0.505
10.6422	0.466
10.683	0.455
10.7238	0.458
10.7646	0.5
10.8054	0.556
10.8462	0.614
10.887	0.665
10.9278	0.721
10.9686	0.764
11.0094	0.794
11.0502	0.823
11.091	0.845
11.1317	0.862
11.1725	0.87
11.2133	0.879
11.2541	0.886
11.2949	0.891
11.3357	0.887
11.3765	0.86
11.4173	0.867
11.4581	0.904
11.4989	0.938
11.5397	0.949
11.5805	0.954
11.6213	0.96
11.6621	0.96
11.7029	0.96
11.7437	0.945
11.7845	0.901
11.8253	0.876
11.8661	0.943
11.9069	0.964
11.9477	0.974
11.9885	0.977
12.0293	0.977
12.0701	0.981
12.1109	0.984
12.1517	0.986
12.1925	0.988
12.2333	0.991
12.2741	0.993
12.3149	0.994
12.3557	0.996
12.3965	0.996
12.4373	0.996
12.4781	0.996
12.5188	0.998
12.5596	1
12.6004	1
12.6412	1
12.682	1
12.7228	0.988
12.7636	0.926
12.8044	0.92
12.8452	0.967
12.886	0.986
12.9268	0.993
12.9676	0.996
13.0084	0.996
13.0492	0.998
13.09	0.998
13.1308	1
13.1716	1
13.2124	1
13.2532	1
13.294	0.996
13.3348	0.991
13.3756	0.989
13.4164	0.988
13.4572	0.988
13.498	0.988
13.5388	0.989
13.5796	0.989
13.6204	0.989
13.6612	0.991
13.702	0.991
13.7428	0.991
13.7836	0.991
13.8244	0.991
13.8652	0.991
13.906	0.991
13.9467	0.991
13.9875	0.991
14.0283	0.991
14.0691	0.991
14.1099	0.991
14.1507	0.991
14.1915	0.991
14.2323	0.993
14.2731	0.991
14.3139	0.991
14.3547	0.991
14.3955	0.991
14.4363	0.988
14.4771	0.981
14.5179	0.979
14.5587	0.979
14.5995	0.974
14.6403	0.967
14.6811	0.964
14.7219	0.959
14.7627	0.955
14.8035	0.955
14.8443	0.947
14.8851	0.94
14.9259	0.921
14.9667	0.882
15.0075	0.869
15.0483	0.87
15.0891	0.869
15.1299	0.857
15.1707	0.842
15.2115	0.823
15.2523	0.808
15.2931	0.808
15.3338	0.808
15.3746	0.809
15.4154	0.809
15.4562	0.809
15.497	0.809
15.5378	0.808
15.5786	0.797
15.6194	0.779
15.6602	0.755
15.701	0.726
15.7418	0.709
15.7826	0.704
15.8234	0.699
15.8642	0.697
15.905	0.697
15.9458	0.697
15.9866	0.699
