Infrared Spectrum: 2,4-DINITROPHENYLHYDRAZONE OF 1-n-PENTANESULFONYL-2-PROPANONE
Formula: C14 H20 N4 O6 S
CAS: 97172-82-2
State: SOLID (KBr PELLET)
Melting point: 149-150 C
Class: COBLENTZ
Instrument: Not specified, most likely a prism, grating, or hybrid spectrometer.
Sampling: TRANSMISSION
Resolution: 4
Origin: EASTMAN KODAK COMPANY, RESEARCH LABORATORIES, ROCHESTER, N.Y.
MICROMETERS	TRANSMITTANCE
2.007	0.784
2.04692	0.775
2.08685	0.77
2.12677	0.766
2.16669	0.765
2.20661	0.758
2.24654	0.752
2.28646	0.75
2.32638	0.75
2.36631	0.752
2.40623	0.76
2.44615	0.771
2.48607	0.77
2.526	0.768
2.56592	0.768
2.60584	0.77
2.64576	0.775
2.68569	0.793
2.72561	0.793
2.76553	0.788
2.80546	0.758
2.84538	0.688
2.8853	0.646
2.92522	0.615
2.96515	0.597
3.00507	0.623
3.04499	0.507
3.08492	0.701
3.12484	0.717
3.16476	0.733
3.20468	0.75
3.24461	0.696
3.28453	0.711
3.32445	0.733
3.36437	0.676
3.4043	0.53
3.44422	0.41
3.48414	0.61
3.52407	0.571
3.56399	0.715
3.60391	0.771
3.64383	0.799
3.68376	0.812
3.72368	0.829
3.7636	0.832
3.80353	0.834
3.84345	0.84
3.88337	0.858
3.92329	0.865
3.96322	0.868
4.00314	0.876
4.04306	0.878
4.08299	0.873
4.12291	0.873
4.16283	0.883
4.20275	0.893
4.24268	0.898
4.2826	0.899
4.32252	0.903
4.36244	0.908
4.40237	0.909
4.44229	0.912
4.48221	0.912
4.52214	0.916
4.56206	0.919
4.60198	0.921
4.6419	0.919
4.68183	0.921
4.72175	0.919
4.76167	0.914
4.8016	0.914
4.84152	0.912
4.88144	0.916
4.92136	0.912
4.96129	0.909
5.00121	0.916
5.04113	0.919
5.08105	0.921
5.12098	0.931
5.1609	0.922
5.20082	0.934
5.24075	0.942
5.28067	0.947
5.32059	0.95
5.36051	0.952
5.40044	0.955
5.44036	0.957
5.48028	0.947
5.52021	0.952
5.56013	0.958
5.60005	0.954
5.63997	0.965
5.6799	0.962
5.71982	0.954
5.75974	0.942
5.79967	0.934
5.83959	0.937
5.87951	0.935
5.91943	0.935
5.95936	0.919
5.99928	0.881
6.0392	0.84
6.07912	0.773
6.11905	0.637
6.15897	0.082
6.19889	0.147
6.23882	0.231
6.27874	0.198
6.31866	0.43
6.35858	0.592
6.39851	0.77
6.43843	0.788
6.47835	0.732
6.51828	0.553
6.5582	0.482
6.59812	0.172
6.63804	0.215
6.67797	0.392
6.71789	0.63
6.75781	0.752
6.79774	0.73
6.83766	0.658
6.87758	0.614
6.9175	0.541
6.95743	0.599
6.99735	0.474
7.03727	0.466
7.07719	0.591
7.11712	0.671
7.15704	0.607
7.19696	0.737
7.23689	0.758
7.27681	0.711
7.31673	0.596
7.35665	0.302
7.39658	0.351
7.4365	0.139
7.47642	0.083
7.51635	0.124
7.55627	0.114
7.59619	0.062
7.63611	0.057
7.67604	0.101
7.71596	0.159
7.75588	0.201
7.7958	0.285
7.83573	0.463
7.87565	0.532
7.91557	0.38
7.9555	0.331
7.99542	0.474
8.03534	0.61
8.07526	0.522
8.11519	0.566
8.15511	0.574
8.19503	0.681
8.23496	0.802
8.27488	0.845
8.3148	0.871
8.35472	0.858
8.39465	0.86
8.43457	0.842
8.47449	0.817
8.51442	0.825
8.55434	0.791
8.59426	0.783
8.63418	0.827
8.67411	0.822
8.71403	0.732
8.75395	0.482
8.79387	0.3
8.8338	0.362
8.87372	0.042
8.91364	0.077
8.95357	0.262
8.99349	0.403
9.03341	0.479
9.07333	0.451
9.11326	0.356
9.15318	0.339
9.1931	0.441
9.23303	0.502
9.27295	0.541
9.31287	0.656
9.35279	0.753
9.39272	0.783
9.43264	0.702
9.47256	0.688
9.51248	0.801
9.55241	0.847
9.59233	0.87
9.63225	0.873
9.67218	0.87
9.7121	0.865
9.75202	0.845
9.79194	0.834
9.83187	0.814
9.87179	0.84
9.91171	0.883
9.95164	0.901
9.99156	0.921
10.0315	0.927
10.0714	0.931
10.1113	0.939
10.1512	0.939
10.1912	0.94
10.2311	0.942
10.271	0.935
10.3109	0.919
10.3509	0.921
10.3908	0.934
10.4307	0.932
10.4706	0.94
10.5106	0.949
10.5505	0.958
10.5904	0.97
10.6303	0.985
10.6702	0.983
10.7102	0.985
10.7501	0.977
10.79	0.901
10.8299	0.799
10.8699	0.865
10.9098	0.885
10.9497	0.768
10.9896	0.771
11.0296	0.885
11.0695	0.885
11.1094	0.852
11.1493	0.842
11.1892	0.873
11.2292	0.914
11.2691	0.944
11.309	0.965
11.3489	0.975
11.3889	0.972
11.4288	0.955
11.4687	0.921
11.5086	0.875
11.5485	0.873
11.5885	0.891
11.6284	0.921
11.6683	0.934
11.7082	0.931
11.7482	0.909
11.7881	0.88
11.828	0.852
11.8679	0.771
11.9079	0.709
11.9478	0.51
11.9877	0.451
12.0276	0.658
12.0675	0.775
12.1075	0.848
12.1474	0.901
12.1873	0.932
12.2272	0.934
12.2672	0.922
12.3071	0.906
12.347	0.904
12.3869	0.904
12.4268	0.883
12.4668	0.878
12.5067	0.883
12.5466	0.906
12.5865	0.924
12.6265	0.945
12.6664	0.952
12.7063	0.96
12.7462	0.96
12.7862	0.955
12.8261	0.955
12.866	0.954
12.9059	0.952
12.9458	0.95
12.9858	0.944
13.0257	0.911
13.0656	0.799
13.1055	0.866
13.1455	0.921
13.1854	0.929
13.2253	0.926
13.2652	0.909
13.3052	0.881
13.3451	0.827
13.385	0.686
13.4249	0.504
13.4648	0.566
13.5048	0.735
13.5447	0.832
13.5846	0.85
13.6245	0.834
13.6645	0.755
13.7044	0.668
13.7443	0.696
13.7842	0.771
13.8241	0.839
13.8641	0.889
13.904	0.921
13.9439	0.931
13.9838	0.942
14.0238	0.945
14.0637	0.95
14.1036	0.952
14.1435	0.945
14.1835	0.937
14.2234	0.922
14.2633	0.912
14.3032	0.899
14.3431	0.891
14.3831	0.898
14.423	0.894
14.4629	0.88
14.5028	0.865
14.5428	0.875
14.5827	0.896
14.6226	0.903
14.6625	0.906
14.7024	0.917
14.7424	0.921
14.7823	0.919
14.8222	0.917
14.8621	0.917
14.9021	0.904
14.942	0.87
14.9819	0.865
15.0218	0.893
15.0618	0.888
15.1017	0.87
15.1416	0.852
15.1815	0.832
15.2214	0.824
15.2614	0.829
15.3013	0.835
15.3412	0.842
15.3811	0.844
15.4211	0.84
15.461	0.839
15.5009	0.832
15.5408	0.83
15.5807	0.832
15.6207	0.837
15.6606	0.83
15.7005	0.83
15.7404	0.829
15.7804	0.829
15.8203	0.825
15.8602	0.821
15.9001	0.819
15.9401	0.816
15.98	0.807
16.0199	0.802
