Infrared Spectrum: 2-DIMETHYLAMINO-METHYLENE-3-ISOPROPYLIDENE SUCCINIC ACID, DIETHYL ESTER
Formula: C14 H23 N O4
CAS: 97176-61-9
State: SOLID (MELT)
Class: COBLENTZ
Instrument: Not specified, most likely a prism, grating, or hybrid spectrometer.
Sampling: TRANSMISSION
Resolution: 4
Origin: TENNESSEE EASTMAN COMPANY, RESEARCH LABORATORIES
MICROMETERS	TRANSMITTANCE
2.02	0.95
2.05986	0.955
2.09971	0.958
2.13957	0.958
2.17943	0.958
2.21929	0.958
2.25914	0.953
2.299	0.951
2.33886	0.951
2.37872	0.953
2.41857	0.955
2.45843	0.955
2.49829	0.955
2.53814	0.958
2.578	0.958
2.61786	0.958
2.65772	0.955
2.69757	0.955
2.73743	0.953
2.77729	0.953
2.81714	0.953
2.857	0.953
2.89686	0.951
2.93672	0.935
2.97657	0.93
3.01643	0.93
3.05629	0.931
3.09615	0.931
3.136	0.93
3.17586	0.923
3.21572	0.908
3.25557	0.89
3.29543	0.78
3.33529	0.482
3.37515	0.507
3.415	0.52
3.45486	0.677
3.49472	0.77
3.53457	0.783
3.57443	0.863
3.61429	0.885
3.65415	0.89
3.694	0.9
3.73386	0.908
3.77372	0.913
3.81358	0.913
3.85343	0.913
3.89329	0.915
3.93315	0.911
3.973	0.911
4.01286	0.911
4.05272	0.911
4.09258	0.911
4.13243	0.911
4.17229	0.911
4.21215	0.918
4.252	0.92
4.29186	0.918
4.33172	0.911
4.37158	0.91
4.41143	0.91
4.45129	0.908
4.49115	0.908
4.53101	0.908
4.57086	0.908
4.61072	0.91
4.65058	0.91
4.69043	0.908
4.73029	0.906
4.77015	0.901
4.81001	0.901
4.84986	0.903
4.88972	0.905
4.92958	0.903
4.96943	0.903
5.00929	0.905
5.04915	0.901
5.08901	0.9
5.12886	0.89
5.16872	0.886
5.20858	0.88
5.24844	0.876
5.28829	0.875
5.32815	0.881
5.36801	0.883
5.40786	0.885
5.44772	0.883
5.48758	0.876
5.52744	0.871
5.56729	0.851
5.60715	0.84
5.64701	0.813
5.68686	0.773
5.72672	0.695
5.76658	0.437
5.80644	0.241
5.84629	0.206
5.88615	0.176
5.92601	0.193
5.96587	0.356
6.00572	0.544
6.04558	0.557
6.08544	0.435
6.12529	0.269
6.16515	0.186
6.20501	0.144
6.24487	0.184
6.28472	0.417
6.32458	0.587
6.36444	0.683
6.40429	0.722
6.44415	0.74
6.48401	0.743
6.52387	0.753
6.56372	0.757
6.60358	0.753
6.64344	0.737
6.6833	0.667
6.72315	0.62
6.76301	0.584
6.80287	0.54
6.84272	0.505
6.88258	0.437
6.92244	0.422
6.9623	0.53
7.00215	0.57
7.04201	0.643
7.08187	0.605
7.12172	0.51
7.16158	0.419
7.20144	0.4
7.2413	0.464
7.28115	0.475
7.32101	0.391
7.36087	0.564
7.40073	0.72
7.44058	0.748
7.48044	0.755
7.5203	0.755
7.56015	0.727
7.60001	0.67
7.63987	0.564
7.67973	0.391
7.71958	0.256
7.75944	0.211
7.7993	0.216
7.83915	0.241
7.87901	0.322
7.91887	0.379
7.95873	0.341
7.99858	0.342
8.03844	0.422
8.0783	0.379
8.11816	0.237
8.15801	0.156
8.19787	0.131
8.23773	0.131
8.27758	0.171
8.31744	0.241
8.3573	0.367
8.39716	0.464
8.43701	0.539
8.47687	0.55
8.51673	0.519
8.55658	0.565
8.59644	0.603
8.6363	0.62
8.67616	0.61
8.71601	0.592
8.75587	0.615
8.79573	0.637
8.83559	0.64
8.87544	0.607
8.9153	0.554
8.95516	0.46
8.99501	0.374
9.03487	0.267
9.07473	0.201
9.11459	0.178
9.15444	0.176
9.1943	0.173
9.23416	0.151
9.27401	0.151
9.31387	0.196
9.35373	0.269
9.39359	0.352
9.43344	0.409
9.4733	0.442
9.51316	0.422
9.55302	0.386
9.59287	0.394
9.63273	0.457
9.67259	0.542
9.71244	0.602
9.7523	0.622
9.79216	0.655
9.83202	0.692
9.87187	0.718
9.91173	0.735
9.95159	0.747
9.99144	0.75
10.0313	0.743
10.0712	0.722
10.111	0.7
10.1509	0.692
10.1907	0.693
10.2306	0.697
10.2704	0.703
10.3103	0.71
10.3502	0.713
10.39	0.715
10.4299	0.71
10.4697	0.703
10.5096	0.69
10.5494	0.687
10.5893	0.685
10.6292	0.695
10.669	0.713
10.7089	0.743
10.7487	0.772
10.7886	0.797
10.8284	0.811
10.8683	0.815
10.9082	0.813
10.948	0.805
10.9879	0.806
11.0277	0.82
11.0676	0.831
11.1074	0.84
11.1473	0.843
11.1872	0.846
11.227	0.845
11.2669	0.845
11.3067	0.843
11.3466	0.845
11.3864	0.84
11.4263	0.823
11.4662	0.82
11.506	0.816
11.5459	0.813
11.5857	0.8
11.6256	0.79
11.6654	0.783
11.7053	0.78
11.7452	0.78
11.785	0.79
11.8249	0.813
11.8647	0.826
11.9046	0.83
11.9444	0.831
11.9843	0.83
12.0242	0.81
12.064	0.787
12.1039	0.773
12.1437	0.77
12.1836	0.767
12.2234	0.76
12.2633	0.75
12.3032	0.743
12.343	0.735
12.3829	0.732
12.4227	0.73
12.4626	0.725
12.5024	0.717
12.5423	0.718
12.5822	0.722
12.622	0.733
12.6619	0.743
12.7017	0.745
12.7416	0.745
12.7815	0.735
12.8213	0.715
12.8612	0.69
12.901	0.682
12.9409	0.682
12.9807	0.682
13.0206	0.673
13.0605	0.67
13.1003	0.69
13.1402	0.718
13.18	0.742
13.2199	0.767
13.2597	0.78
13.2996	0.785
13.3395	0.792
13.3793	0.8
13.4192	0.8
13.459	0.8
13.4989	0.8
13.5387	0.797
13.5786	0.798
13.6185	0.801
13.6583	0.803
13.6982	0.805
13.738	0.81
13.7779	0.81
13.8177	0.81
13.8576	0.81
13.8975	0.81
13.9373	0.808
13.9772	0.803
14.017	0.8
14.0569	0.801
14.0967	0.801
14.1366	0.792
14.1765	0.787
14.2163	0.785
14.2562	0.775
14.296	0.773
14.3359	0.773
14.3757	0.767
14.4156	0.76
14.4555	0.76
14.4953	0.755
14.5352	0.745
14.575	0.743
14.6149	0.743
14.6547	0.74
14.6946	0.733
14.7345	0.733
14.7743	0.728
14.8142	0.722
14.854	0.72
14.8939	0.72
14.9337	0.72
14.9736	0.718
15.0135	0.708
15.0533	0.69
15.0932	0.682
15.133	0.68
15.1729	0.68
15.2127	0.678
15.2526	0.677
15.2925	0.677
15.3323	0.677
15.3722	0.678
15.412	0.677
15.4519	0.677
15.4917	0.677
15.5316	0.677
15.5715	0.678
15.6113	0.678
15.6512	0.678
15.691	0.68
15.7309	0.68
15.7707	0.68
15.8106	0.683
15.8505	0.682
15.8903	0.682
15.9302	0.685
15.97	0.69
