Infrared Spectrum: 2-(3',4'-METHYLENEDIOXY)PHENYL-4-KETO-1,3-BENZOTHIOXANE
Formula: C15 H10 O4 S
CAS: 97192-88-6
State: SOLUTION (7% IN CHCl3)
Class: COBLENTZ
Instrument: PERKIN-ELMER
Sampling: TRANSMISSION
Path length: 0.010 CM
Resolution: 4
Origin: ABBOTT LABORATORIES - WASHBURN
MICROMETERS	TRANSMITTANCE
2.034	0.912
2.06825	0.917
2.10249	0.917
2.13674	0.9222
2.17098	0.922
2.20523	0.919
2.23947	0.926
2.27372	0.917
2.30796	0.931
2.34221	0.926
2.37645	0.9278
2.4107	0.931
2.44494	0.934
2.47919	0.938
2.51343	0.9331
2.54768	0.929
2.58192	0.931
2.61617	0.936
2.65041	0.9312
2.68466	0.938
2.71891	0.94
2.75315	0.9359
2.7874	0.94
2.82164	0.9331
2.85589	0.916
2.89013	0.9121
2.92438	0.9161
2.95862	0.912
2.99287	0.921
3.02711	0.924
3.06136	0.931
3.0956	0.9339
3.12985	0.934
3.16409	0.9311
3.19834	0.924
3.23258	0.9161
3.26683	0.8933
3.30107	0.8592
3.33532	0.8404
3.36957	0.8316
3.40381	0.8569
3.43806	0.863
3.4723	0.7784
3.50655	0.8186
3.54079	0.8777
3.57504	0.9069
3.60928	0.9027
3.64353	0.8979
3.67777	0.916
3.71202	0.9172
3.74626	0.9208
3.78051	0.926
3.81475	0.929
3.849	0.922
3.88324	0.924
3.91749	0.9225
3.95173	0.926
3.98598	0.924
4.02023	0.921
4.05447	0.924
4.08872	0.926
4.12296	0.924
4.15721	0.9262
4.19145	0.929
4.2257	0.94
4.25994	0.9331
4.29419	0.931
4.32843	0.9263
4.36268	0.9289
4.39692	0.929
4.43117	0.9339
4.46541	0.936
4.49966	0.9359
4.5339	0.934
4.56815	0.929
4.60239	0.929
4.63664	0.933
4.67088	0.931
4.70513	0.9311
4.73938	0.931
4.77362	0.934
4.80787	0.9293
4.84211	0.922
4.87636	0.919
4.9106	0.9162
4.94485	0.9189
4.97909	0.924
5.01334	0.9261
5.04758	0.926
5.08183	0.916
5.11607	0.914
5.15032	0.9161
5.18456	0.912
5.21881	0.917
5.25305	0.919
5.2873	0.922
5.32154	0.9171
5.35579	0.9069
5.39004	0.89
5.42428	0.888
5.45853	0.888
5.49277	0.9
5.52702	0.91
5.56126	0.9072
5.59551	0.9021
5.62975	0.881
5.664	0.806
5.69824	0.6463
5.73249	0.3767
5.76673	0.116
5.80098	0.063
5.83522	0.2052
5.86947	0.4196
5.90371	0.657
5.93796	0.731
5.9722	0.8055
6.00645	0.8505
6.0407	0.859
6.07494	0.863
6.10919	0.8542
6.14343	0.8404
6.17768	0.813
6.21192	0.753
6.24617	0.6227
6.28041	0.5232
6.31466	0.7186
6.3489	0.8028
6.38315	0.7972
6.41739	0.8277
6.45164	0.871
6.48588	0.871
6.52013	0.8687
6.55437	0.8596
6.58862	0.8333
6.62286	0.7083
6.65711	0.416
6.69136	0.3958
6.7256	0.2451
6.75985	0.5822
6.79409	0.6154
6.82834	0.6371
6.86258	0.542
6.89683	0.3798
6.93107	0.169
6.96532	0.353
6.99956	0.7171
7.03381	0.8008
7.06805	0.8263
7.1023	0.851
7.13654	0.851
7.17079	0.8331
7.20503	0.8189
7.23928	0.7258
7.27352	0.71
7.30777	0.6931
7.34202	0.7418
7.37626	0.7817
7.41051	0.804
7.44475	0.816
7.479	0.8067
7.51324	0.7563
7.54749	0.6958
7.58173	0.6687
7.61598	0.7267
7.65022	0.7011
7.68447	0.6338
7.71871	0.5075
7.75296	0.3038
7.7872	0.1209
7.82145	0.0731
7.85569	0.2232
7.88994	0.3262
7.92418	0.2644
7.95843	0.1069
7.99268	0.0631
8.02692	0.1109
8.06117	0.1947
8.09541	0.2978
8.12966	0.3707
8.1639	0.3898
8.19815	0.3946
8.23239	0.4
8.26664	0.4068
8.30088	0.4158
8.33513	0.471
8.36937	0.6577
8.40362	0.7218
8.43786	0.7203
8.47211	0.7377
8.50635	0.7988
8.5406	0.8267
8.57484	0.842
8.60909	0.8211
8.64333	0.8327
8.67758	0.8469
8.71183	0.8403
8.74607	0.8321
8.78032	0.8202
8.81456	0.7568
8.84881	0.6572
8.88305	0.612
8.9173	0.6378
8.95154	0.6339
8.98579	0.5486
9.02003	0.2864
9.05428	0.1421
9.08852	0.1702
9.12277	0.2883
9.15701	0.4637
9.19126	0.5976
9.2255	0.7016
9.25975	0.7756
9.29399	0.7966
9.32824	0.803
9.36249	0.8012
9.39673	0.7926
9.43098	0.7515
9.46522	0.6316
9.49947	0.5452
9.53371	0.492
9.56796	0.3089
9.6022	0.1943
9.63645	0.2085
9.67069	0.2323
9.70494	0.2405
9.73918	0.4327
9.77343	0.5264
9.80767	0.5577
9.84192	0.5658
9.87616	0.5768
9.91041	0.577
9.94465	0.5705
9.9789	0.565
10.0131	0.5592
10.0474	0.5542
10.0816	0.556
10.1159	0.568
10.1501	0.5885
10.1844	0.6035
10.2186	0.638
10.2529	0.6839
10.2871	0.7258
10.3214	0.7643
10.3556	0.782
10.3898	0.787
10.4241	0.784
10.4583	0.7956
10.4926	0.7851
10.5268	0.7442
10.5611	0.7292
10.5953	0.6924
10.6296	0.5925
10.6638	0.4705
10.6981	0.3492
10.7323	0.3842
10.7665	0.5052
10.8008	0.6662
10.835	0.7332
10.8693	0.7813
10.9035	0.8178
10.9378	0.8319
10.972	0.8418
11.0063	0.8508
11.0405	0.8559
11.0747	0.859
11.109	0.8592
11.1432	0.859
11.1775	0.857
11.2117	0.857
11.246	0.8558
11.2802	0.857
11.3145	0.8541
11.3487	0.851
11.383	0.8352
11.4172	0.8134
11.4514	0.7614
11.4857	0.7084
11.5199	0.7079
11.5542	0.708
11.5884	0.7198
11.6227	0.7596
11.6569	0.8048
11.6912	0.8323
11.7254	0.851
11.7597	0.8569
11.7939	0.861
11.8281	0.8613
11.8624	0.8638
11.8966	0.861
11.9309	0.857
11.9651	0.847
11.9994	0.8351
12.0336	0.827
12.0679	0.8166
12.1021	0.7947
12.1364	0.7631
12.1706	0.7383
12.2048	0.7353
12.2391	0.7495
12.2733	0.7799
12.3076	0.791
12.3418	0.7844
12.3761	0.757
12.4103	0.7126
12.4446	0.6983
12.4788	0.7026
12.513	0.7079
12.5473	0.7149
12.5815	0.7151
12.6158	0.7103
12.65	0.7053
12.6843	0.6961
12.7185	0.6882
12.7528	0.6813
12.787	0.6763
12.8213	0.6761
12.8555	0.6671
12.8897	0.6623
12.924	0.657
12.9582	0.6481
12.9925	0.6432
13.0267	0.6453
13.061	0.6366
13.0952	0.638
13.1295	0.6351
13.1637	0.631
13.198	0.6221
13.2322	0.614
13.2664	0.613
13.3007	0.613
13.3349	0.618
13.3692	0.614
13.4034	0.6073
13.4377	0.601
13.4719	0.595
13.5062	0.5972
13.5404	0.5952
13.5747	0.5942
13.6089	0.59
13.6431	0.5821
13.6774	0.571
13.7116	0.5633
13.7459	0.558
13.7801	0.563
13.8144	0.5592
13.8486	0.5658
13.8829	0.5767
13.9171	0.5866
13.9514	0.6033
13.9856	0.6205
14.0198	0.6486
14.0541	0.6852
14.0883	0.735
14.1226	0.7783
14.1568	0.8018
14.1911	0.8315
14.2253	0.8468
14.2596	0.8557
14.2938	0.8644
14.328	0.864
14.3623	0.8592
14.3965	0.8626
14.4308	0.861
14.465	0.8561
14.4993	0.8422
14.5335	0.8097
14.5678	0.7646
14.602	0.7293
14.6363	0.7082
14.6705	0.7046
14.7047	0.7253
14.739	0.7596
14.7732	0.795
14.8075	0.8126
14.8417	0.8196
14.876	0.8212
14.9102	0.8162
14.9445	0.8134
14.9787	0.8016
15.013	0.7843
15.0472	0.777
15.0814	0.782
15.1157	0.7771
15.1499	0.7888
15.1842	0.7969
15.2184	0.797
15.2527	0.7891
15.2869	0.7682
15.3212	0.7628
15.3554	0.7838
15.3897	0.8038
