Infrared Spectrum: Androsta-3,5-dien-17-one,3-ethoxy-,
Formula: C21 H30 O2
CAS: 972-46-3
State: SOLUTION (0.2 M CHCl3 FOR 2.5-12.5 MICRON) VS SOLVENT
Class: COBLENTZ
Instrument: PERKIN-ELMER 21 (GRATING)
Instrument parameters: FILTER AT ABOUT 10 MICRONS
Path length: 0.01 CM
Resolution: 2
Origin: ABBOTT LABORATORIES
1/CM	TRANSMITTANCE
798	1.026
807	0.9473
816	0.803
825	0.7957
834	0.7992
843	0.8273
852	0.6763
861	0.5967
870	0.5848
879	0.7944
888	0.7575
897	0.6813
906	0.8118
915	0.7895
924	0.7064
933	0.798
942	0.8324
951	0.8163
960	0.7943
969	0.7686
978	0.7892
987	0.8003
996	0.8076
1005	0.7696
1014	0.6086
1023	0.7278
1032	0.7071
1041	0.5779
1050	0.4552
1059	0.5417
1068	0.7392
1077	0.7053
1086	0.7749
1095	0.7227
1104	0.7591
1113	0.6698
1122	0.6768
1131	0.7446
1140	0.621
1149	0.6417
1158	0.5647
1167	0.3959
1176	0.2083
1185	0.499
1194	0.4756
1203	0.6552
1212	0.597
1221	0.5726
1230	0.5504
1239	0.5956
1248	0.5966
1257	0.6868
1266	0.7197
1275	0.7447
1284	0.7809
1293	0.7441
1302	0.7009
1311	0.7564
1320	0.7125
1329	0.7594
1338	0.744
1347	0.7084
1356	0.5922
1365	0.6463
1374	0.6004
1383	0.419
1392	0.4261
1401	0.6781
1410	0.6487
1419	0.7711
1428	0.7682
1437	0.6586
1446	0.6651
1455	0.6154
1464	0.6525
1473	0.6717
1482	0.6837
1491	0.8025
1500	0.8508
1509	0.8664
1518	0.8783
1527	0.8835
1536	0.8756
1545	0.8531
1554	0.8443
1563	0.8395
1572	0.8333
1581	0.8257
1590	0.8231
1599	0.8174
1608	0.7981
1617	0.7685
1626	0.7072
1635	0.4954
1644	0.4635
1653	0.6175
1662	0.4599
1671	0.5307
1680	0.7707
1689	0.7848
1698	0.7806
1707	0.768
1716	0.7512
1725	0.7068
1734	0.4526
1743	0.1303
1752	0.132
1761	0.4745
1770	0.6874
1779	0.7519
1788	0.7985
1797	0.8181
1806	0.826
1815	0.8312
1824	0.8349
1833	0.838
1842	0.8403
1851	0.8425
1860	0.8441
1869	0.8456
1878	0.8466
1887	0.8474
1896	0.8481
1905	0.8487
1914	0.849
1923	0.8492
1932	0.8491
1941	0.8487
1950	0.8482
1959	0.8476
1968	0.8472
1977	0.8467
1986	0.8461
1995	0.8453
2004	0.8455
2013	0.8462
2022	0.848
2031	0.8501
2040	0.8518
2049	0.8524
2058	0.8532
2067	0.8537
2076	0.8542
2085	0.8546
2094	0.8551
2103	0.8555
2112	0.8558
2121	0.8562
2130	0.8566
2139	0.8569
2148	0.8571
2157	0.8572
2166	0.8571
2175	0.8567
2184	0.8563
2193	0.8566
2202	0.8569
2211	0.8573
2220	0.8579
2229	0.8586
2238	0.8593
2247	0.8597
2256	0.86
2265	0.8596
2274	0.8593
2283	0.859
2292	0.8594
2301	0.86
2310	0.8606
2319	0.8625
2328	0.8645
2337	0.8665
2346	0.8683
2355	0.8701
2364	0.8715
2373	0.8729
2382	0.8737
2391	0.8741
2400	0.8737
2409	0.8725
2418	0.8699
2427	0.8644
2436	0.8517
2445	0.8473
2454	0.8467
2463	0.8472
2472	0.8478
2481	0.8492
2490	0.8511
2499	0.8532
2508	0.8552
2517	0.857
2526	0.8575
2535	0.8574
2544	0.8566
2553	0.8556
2562	0.8541
2571	0.8525
2580	0.8511
2589	0.8497
2598	0.8484
2607	0.8471
2616	0.8459
2625	0.8449
2634	0.8439
2643	0.8437
2652	0.8437
2661	0.8437
2670	0.8437
2679	0.8437
2688	0.8434
2697	0.8431
2706	0.8428
2715	0.8421
2724	0.8405
2733	0.8385
2742	0.8357
2751	0.8329
2760	0.8304
2769	0.8276
2778	0.8243
2787	0.8191
2796	0.8104
2805	0.7974
2814	0.7814
2823	0.7546
2832	0.7168
2841	0.6665
2850	0.6344
2859	0.6112
2868	0.5824
2877	0.5587
2886	0.5373
2895	0.5166
2904	0.4976
2913	0.4769
2922	0.4474
2931	0.3965
2940	0.3598
2949	0.3497
2958	0.3479
2967	0.3481
2976	0.3504
2985	0.377
2994	0.4198
3003	0.45
3012	0.5045
3021	0.58
3030	0.6549
3039	0.7294
3048	0.8104
3057	0.8331
3066	0.8461
3075	0.8571
3084	0.8632
3093	0.8671
3102	0.8689
3111	0.869
3120	0.8687
3129	0.8683
3138	0.8678
3147	0.867
3156	0.8665
3165	0.8668
3174	0.8696
3183	0.8732
3192	0.8763
3201	0.8789
3210	0.8808
3219	0.8823
3228	0.8832
3237	0.884
3246	0.8845
3255	0.8849
3264	0.8853
3273	0.8857
3282	0.8857
3291	0.8857
3300	0.8857
3309	0.8856
3318	0.8853
3327	0.885
3336	0.8847
3345	0.8843
3354	0.8836
3363	0.883
3372	0.8819
3381	0.8794
3390	0.8764
3399	0.8729
3408	0.8708
3417	0.8695
3426	0.8684
3435	0.8678
3444	0.8673
3453	0.8669
3462	0.8667
3471	0.8668
3480	0.8668
3489	0.8673
3498	0.8679
3507	0.8686
3516	0.8696
3525	0.8707
3534	0.8717
3543	0.8728
3552	0.8739
3561	0.875
3570	0.8761
3579	0.8772
3588	0.8781
3597	0.8788
3606	0.8796
3615	0.8804
3624	0.8806
3633	0.8799
3642	0.8787
3651	0.8763
3660	0.8739
3669	0.8725
3678	0.8728
3687	0.8736
3696	0.8744
3705	0.8754
3714	0.8762
3723	0.877
3732	0.8779
3741	0.8786
3750	0.8793
3759	0.8799
3768	0.8803
3777	0.8806
3786	0.8808
3795	0.881
3804	0.8809
3813	0.8808
3822	0.8808
3831	0.8807
3840	0.8807
3849	0.8807
3858	0.8807
3867	0.8807
3876	0.8806
3885	0.8805
3894	0.8803
3903	0.8801
3912	0.88
3921	0.8797
3930	0.8796
3939	0.8793
3948	0.8792
3957	0.879
3966	0.8788
3975	0.8786
3984	0.8785
3993	0.8783
