Infrared Spectrum: 3,5-Xylenesulfonamide, N,N-dimethyl-4-(2-(dimethylamino )ethoxy)-, hydrochloride
Formula: C14 H25 Cl N2 O3 S
CAS: 97237-77-9
State: SOLID (OIL MULL)
Class: COBLENTZ III
Instrument: PERKIN-ELMER 21 (GRATING)
Instrument parameters: NaCl PRISM
Sampling: TRANSMISSION
Resolution: 2
Origin: SMITH KLINE & FRENCH LABS.
1/CM	TRANSMITTANCE
638	0.6363
647	0.6738
656	0.7216
665	0.7005
674	0.7471
683	0.7153
692	0.5853
701	0.2494
710	0.2567
719	0.155
728	0.65
737	0.7634
746	0.8074
755	0.8397
764	0.8189
773	0.5774
782	0.8738
791	0.8517
800	0.8885
809	0.8911
818	0.8919
827	0.8881
836	0.8841
845	0.8686
854	0.8671
863	0.8409
872	0.7804
881	0.8063
890	0.6059
899	0.6612
908	0.6476
917	0.3938
926	0.375
935	0.4694
944	0.1692
953	0.2009
962	0.5083
971	0.5771
980	0.3901
989	0.1843
998	0.6202
1007	0.6815
1016	0.6626
1025	0.5628
1034	0.3841
1043	0.3878
1052	0.6024
1061	0.6252
1070	0.5988
1079	0.5241
1088	0.5623
1097	0.2301
1106	0.3376
1115	0.5593
1124	0.4932
1133	0.2557
1142	0.0686
1151	0.068
1160	0.3385
1169	0.4828
1178	0.4133
1187	0.5157
1196	0.5334
1205	0.2425
1214	0.278
1223	0.5632
1232	0.5856
1241	0.5176
1250	0.4769
1259	0.4276
1268	0.3485
1277	0.1597
1286	0.3812
1295	0.3702
1304	0.3636
1313	0.4149
1322	0.3449
1331	0.0714
1340	0.2489
1349	0.4486
1358	0.4388
1367	0.3635
1376	0.3435
1385	0.3935
1394	0.3466
1403	0.3788
1412	0.4684
1421	0.3581
1430	0.2691
1439	0.2169
1448	0.1145
1457	0.0796
1466	0.0926
1475	0.1617
1484	0.3274
1493	0.5441
1502	0.6271
1511	0.6485
1520	0.657
1529	0.6613
1538	0.6601
1547	0.6566
1556	0.6518
1565	0.6495
1574	0.5956
1583	0.5755
1592	0.684
1601	0.7157
1610	0.7198
1619	0.7216
1628	0.7186
1637	0.7145
1646	0.7183
1655	0.7304
1664	0.7443
1673	0.7533
1682	0.7558
1691	0.7572
1700	0.7561
1709	0.755
1718	0.7548
1727	0.7548
1736	0.7539
1745	0.7515
1754	0.7458
1763	0.733
1772	0.7293
1781	0.7319
1790	0.7357
1799	0.7522
1808	0.7556
1817	0.7562
1826	0.7556
1835	0.7541
1844	0.7522
1853	0.7497
1862	0.7459
1871	0.744
1880	0.7434
1889	0.7417
1898	0.7354
1907	0.7294
1916	0.727
1925	0.7255
1934	0.7237
1943	0.7221
1952	0.7203
1961	0.7179
1970	0.7155
1979	0.7145
1988	0.7141
1997	0.7137
2006	0.714
2015	0.7183
2024	0.7079
2033	0.7006
2042	0.6985
2051	0.6961
2060	0.692
2069	0.688
2078	0.6827
2087	0.6774
2096	0.6723
2105	0.6695
2114	0.668
2123	0.6662
2132	0.6604
2141	0.6493
2150	0.6379
2159	0.6265
2168	0.6157
2177	0.6083
2186	0.6032
2195	0.5988
2204	0.5896
2213	0.565
2222	0.5429
2231	0.5271
2240	0.5166
2249	0.5081
2258	0.4901
2267	0.4727
2276	0.4365
2285	0.3906
2294	0.345
2303	0.2997
2312	0.2548
2321	0.2121
2330	0.1853
2339	0.1648
2348	0.1532
2357	0.1311
2366	0.1141
2375	0.1059
2384	0.1021
2393	0.1011
2402	0.1016
2411	0.1033
2420	0.1159
2429	0.1418
2438	0.1676
2447	0.1932
2456	0.2161
2465	0.2335
2474	0.2379
2483	0.2404
2492	0.2472
2501	0.252
2510	0.2441
2519	0.2258
2528	0.2177
2537	0.2204
2546	0.2254
2555	0.2385
2564	0.2802
2573	0.3238
2582	0.3453
2591	0.3845
2600	0.4056
2609	0.4178
2618	0.43
2627	0.4422
2636	0.454
2645	0.4646
2654	0.4753
2663	0.4867
2672	0.4966
2681	0.4994
2690	0.5008
2699	0.501
2708	0.5009
2717	0.4999
2726	0.4966
2735	0.4892
2744	0.4646
2753	0.4291
2762	0.3982
2771	0.3698
2780	0.3129
2789	0.2545
2798	0.1964
2807	0.1387
2816	0.0818
2825	0.0754
2834	0.0756
2843	0.0762
2852	0.0769
2861	0.0778
2870	0.0786
2879	0.081
2888	0.0855
2897	0.0903
2906	0.0952
2915	0.1233
2924	0.1635
2933	0.1952
2942	0.3038
2951	0.387
2960	0.401
2969	0.4494
2978	0.4663
2987	0.4758
2996	0.4837
3005	0.4905
3014	0.4976
3023	0.5069
3032	0.516
3041	0.527
3050	0.5385
3059	0.5482
3068	0.5522
3077	0.5538
3086	0.5541
3095	0.5543
3104	0.5544
3113	0.5545
3122	0.5546
3131	0.5547
3140	0.5547
3149	0.5548
3158	0.5556
3167	0.557
3176	0.5572
3185	0.5568
3194	0.5564
3203	0.5559
3212	0.5554
3221	0.5529
3230	0.5492
3239	0.5449
3248	0.5421
3257	0.5411
3266	0.541
3275	0.5411
3284	0.5403
3293	0.5359
3302	0.5314
3311	0.5302
3320	0.5295
3329	0.5288
3338	0.5282
3347	0.5284
3356	0.5287
3365	0.529
3374	0.5296
3383	0.5302
3392	0.5306
3401	0.5307
3410	0.5307
3419	0.5307
3428	0.5307
3437	0.5304
3446	0.5301
3455	0.5298
3464	0.5294
3473	0.5291
3482	0.5287
3491	0.5286
3500	0.5283
3509	0.528
3518	0.5278
3527	0.5275
3536	0.5273
3545	0.5271
3554	0.5269
3563	0.5268
3572	0.5267
3581	0.5267
3590	0.5266
3599	0.5265
3608	0.5263
3617	0.5263
3626	0.5262
3635	0.5261
3644	0.526
3653	0.5259
3662	0.5258
3671	0.5258
3680	0.5257
3689	0.5257
3698	0.5256
3707	0.5256
3716	0.5255
3725	0.5254
3734	0.5254
3743	0.5253
3752	0.5253
3761	0.5249
3770	0.5241
3779	0.5233
3788	0.5224
3797	0.5206
3806	0.5197
3815	0.5197
3824	0.5197
3833	0.5197
3842	0.5208
3851	0.5219
3860	0.5238
3869	0.525
3878	0.5239
3887	0.5222
3896	0.5198
3905	0.5175
3914	0.5152
3923	0.5136
3932	0.512
3941	0.5105
3950	0.509
3959	0.5073
3968	0.5045
3977	0.4998
3986	0.4975
3995	0.4961
