Infrared Spectrum: 9H-Purine-6(1H)-thione, 9-benzyl-1-[2-(p-tolylthio)ethyl]-
Formula: C21 H20 N4 S2
CAS: 97432-20-7
State: SOLID (0.8 mg / 650 mg KBr DISC)
Class: COBLENTZ III
Instrument: PERKIN-ELMER 21 (GRATING)
Instrument parameters: FILTER CHANGE ABOUT 1025 CM^-^1
Sampling: TRANSMISSION
Resolution: 2
Origin: SOUTHERN RESEARCH INSTITUTE
1/CM	TRANSMITTANCE
599.763	0.8099
608.793	0.8076
617.823	0.8022
626.852	0.7915
635.882	0.7534
644.912	0.6941
653.942	0.6302
662.971	0.7663
672.001	0.7171
681.031	0.7349
690.061	0.7163
699.09	0.5816
708.12	0.3798
717.15	0.5298
726.18	0.7848
735.209	0.8012
744.239	0.8021
753.269	0.7856
762.299	0.8001
771.328	0.8088
780.358	0.8093
789.388	0.7777
798.418	0.6638
807.447	0.5411
816.477	0.7626
825.507	0.8069
834.537	0.8171
843.566	0.8162
852.596	0.8015
861.626	0.7767
870.656	0.7566
879.685	0.803
888.715	0.7981
897.745	0.7856
906.775	0.7525
915.804	0.6973
924.834	0.5786
933.864	0.5991
942.894	0.7671
951.923	0.7884
960.953	0.8083
969.983	0.8037
979.013	0.787
988.042	0.7549
997.072	0.7156
1006.1	0.6163
1015.13	0.5411
1024.16	0.7635
1033.19	0.783
1042.22	0.7953
1051.25	0.8023
1060.28	0.8007
1069.31	0.7833
1078.34	0.756
1087.37	0.7211
1096.4	0.7092
1105.43	0.7416
1114.46	0.7217
1123.49	0.6823
1132.52	0.5752
1141.55	0.2629
1150.58	0.4902
1159.61	0.6613
1168.64	0.6445
1177.67	0.6647
1186.7	0.7328
1195.73	0.7274
1204.76	0.534
1213.79	0.62
1222.82	0.6637
1231.85	0.6971
1240.88	0.7354
1249.91	0.7536
1258.94	0.7207
1267.96	0.5981
1276.99	0.6723
1286.02	0.6455
1295.05	0.7509
1304.08	0.7712
1313.11	0.7761
1322.14	0.7479
1331.17	0.6893
1340.2	0.6265
1349.23	0.561
1358.26	0.4675
1367.29	0.5645
1376.32	0.7222
1385.35	0.7169
1394.38	0.6859
1403.41	0.5596
1412.44	0.4352
1421.47	0.4988
1430.5	0.6278
1439.53	0.6319
1448.56	0.6179
1457.59	0.5014
1466.62	0.5012
1475.65	0.6344
1484.68	0.5758
1493.71	0.2161
1502.74	0.3674
1511.77	0.7093
1520.8	0.7161
1529.83	0.714
1538.86	0.6597
1547.89	0.4258
1556.92	0.5392
1565.95	0.6065
1574.98	0.4419
1584.01	0.1173
1593.04	0.144
1602.07	0.4337
1611.1	0.6736
1620.13	0.7099
1629.15	0.72
1638.18	0.7715
1647.21	0.7938
1656.24	0.8022
1665.27	0.8106
1674.3	0.8121
1683.33	0.8134
1692.36	0.8151
1701.39	0.8184
1710.42	0.8217
1719.45	0.8221
1728.48	0.8215
1737.51	0.8206
1746.54	0.8185
1755.57	0.812
1764.6	0.7943
1773.63	0.8026
1782.66	0.8145
1791.69	0.8249
1800.72	0.8276
1809.75	0.8276
1818.78	0.8274
1827.81	0.8279
1836.84	0.8308
1845.87	0.8292
1854.9	0.8262
1863.93	0.822
1872.96	0.8182
1881.99	0.818
1891.02	0.8208
1900.05	0.8246
1909.08	0.8261
1918.11	0.8265
1927.14	0.8258
1936.17	0.8238
1945.2	0.8208
1954.23	0.818
1963.26	0.8183
1972.29	0.8207
1981.32	0.8224
1990.35	0.8228
1999.37	0.8209
2008.4	0.8173
2017.43	0.8146
2026.46	0.8143
2035.49	0.8142
2044.52	0.8133
2053.55	0.8123
2062.58	0.8117
2071.61	0.8115
2080.64	0.8112
2089.67	0.8112
2098.7	0.8111
2107.73	0.8111
2116.76	0.8117
2125.79	0.8124
2134.82	0.8128
2143.85	0.8121
2152.88	0.8114
2161.91	0.8098
2170.94	0.8082
2179.97	0.8065
2189	0.8054
2198.03	0.8044
2207.06	0.8038
2216.09	0.8033
2225.12	0.8021
2234.15	0.8004
2243.18	0.7987
2252.21	0.7972
2261.24	0.7955
2270.27	0.7931
2279.3	0.7875
2288.33	0.7841
2297.36	0.7821
2306.39	0.7802
2315.42	0.7794
2324.45	0.7792
2333.48	0.779
2342.51	0.7789
2351.54	0.7788
2360.56	0.7787
2369.59	0.7785
2378.62	0.7781
2387.65	0.7778
2396.68	0.777
2405.71	0.7757
2414.74	0.7741
2423.77	0.7716
2432.8	0.7686
2441.83	0.7654
2450.86	0.7623
2459.89	0.7592
2468.92	0.7576
2477.95	0.7569
2486.98	0.7565
2496.01	0.7521
2505.04	0.7441
2514.07	0.7386
2523.1	0.7365
2532.13	0.7352
2541.16	0.7338
2550.19	0.7318
2559.22	0.7296
2568.25	0.7274
2577.28	0.726
2586.31	0.7248
2595.34	0.7235
2604.37	0.7228
2613.4	0.7221
2622.43	0.7216
2631.46	0.7213
2640.49	0.7206
2649.52	0.7196
2658.55	0.7182
2667.58	0.7177
2676.61	0.7178
2685.64	0.7177
2694.67	0.7176
2703.7	0.7175
2712.73	0.7174
2721.76	0.7174
2730.78	0.7173
2739.81	0.7183
2748.84	0.7179
2757.87	0.7159
2766.9	0.7095
2775.93	0.7059
2784.96	0.7028
2793.99	0.6995
2803.02	0.696
2812.05	0.6904
2821.08	0.6824
2830.11	0.6732
2839.14	0.6653
2848.17	0.661
2857.2	0.659
2866.23	0.6556
2875.26	0.6409
2884.29	0.6217
2893.32	0.6133
2902.35	0.6099
2911.38	0.608
2920.41	0.6079
2929.44	0.6094
2938.47	0.6116
2947.5	0.613
2956.53	0.6134
2965.56	0.6129
2974.59	0.611
2983.62	0.6077
2992.65	0.6039
3001.68	0.6003
3010.71	0.5963
3019.74	0.5929
3028.77	0.5919
3037.8	0.594
3046.83	0.5987
3055.86	0.6071
3064.89	0.6513
3073.92	0.6765
3082.95	0.6819
3091.98	0.685
3101	0.6863
3110.03	0.6879
3119.06	0.6895
3128.09	0.6892
3137.12	0.6879
3146.15	0.686
3155.18	0.6835
3164.21	0.6802
3173.24	0.6755
3182.27	0.6716
3191.3	0.6681
3200.33	0.6652
3209.36	0.6629
3218.39	0.6599
3227.42	0.6491
3236.45	0.6387
3245.48	0.6307
3254.51	0.6231
3263.54	0.6158
3272.57	0.6097
3281.6	0.6062
3290.63	0.6052
3299.66	0.6018
3308.69	0.5948
3317.72	0.587
3326.75	0.5784
3335.78	0.5688
3344.81	0.5584
3353.84	0.5485
3362.87	0.5393
3371.9	0.5303
3380.93	0.5217
3389.96	0.5136
3398.99	0.5059
3408.02	0.5014
3417.05	0.4989
3426.08	0.4972
3435.11	0.4969
3444.14	0.5004
3453.17	0.5057
3462.19	0.5157
3471.22	0.5174
3480.25	0.5216
3489.28	0.527
3498.31	0.5323
3507.34	0.5375
3516.37	0.5441
3525.4	0.5512
3534.43	0.5579
3543.46	0.564
3552.49	0.5716
3561.52	0.5793
3570.55	0.5868
3579.58	0.5937
3588.61	0.6009
3597.64	0.6087
3606.67	0.6165
3615.7	0.6228
3624.73	0.6333
3633.76	0.6382
3642.79	0.639
3651.82	0.6386
3660.85	0.6381
3669.88	0.6382
3678.91	0.6385
3687.94	0.6389
3696.97	0.6387
3706	0.6385
3715.03	0.6382
3724.06	0.638
3733.09	0.6376
3742.12	0.6372
3751.15	0.6367
3760.18	0.6362
3769.21	0.6352
3778.24	0.6343
3787.27	0.6333
3796.3	0.6315
3805.33	0.6295
3814.36	0.6276
3823.39	0.6251
3832.41	0.6223
3841.44	0.6199
3850.47	0.6181
3859.5	0.6162
3868.53	0.6159
3877.56	0.6156
3886.59	0.6153
3895.62	0.6148
3904.65	0.6143
3913.68	0.6138
3922.71	0.6132
3931.74	0.6126
3940.77	0.6121
3949.8	0.6117
3958.83	0.6113
3967.86	0.6106
3976.89	0.6127
3985.92	0.6089
3994.95	0.6082
4003.98	0.6076
