Infrared Spectrum: 2,4-DINITROPHENYLHYDRAZONE OF 1-n-HEXYLSULFONYL-2-PROPANONE
Formula: C15 H22 N4 O6 S
CAS: 97498-49-2
State: SOLID (KBr PELLET)
Melting point: 118-119 C
Class: COBLENTZ
Instrument: Not specified, most likely a prism, grating, or hybrid spectrometer.
Sampling: TRANSMISSION
Resolution: 4
Origin: EASTMAN KODAK COMPANY, RESEARCH LABORATORIES, ROCHESTER, N.Y.
MICROMETERS	TRANSMITTANCE
2.02	0.601
2.05998	0.598
2.09996	0.594
2.13994	0.589
2.17992	0.588
2.2199	0.586
2.25988	0.584
2.29986	0.586
2.33984	0.588
2.37982	0.593
2.4198	0.596
2.45978	0.601
2.49976	0.602
2.53974	0.607
2.57972	0.612
2.6197	0.622
2.65968	0.635
2.69966	0.635
2.73964	0.63
2.77962	0.609
2.8196	0.555
2.85958	0.525
2.89956	0.51
2.93954	0.522
2.97952	0.512
3.0195	0.449
3.05948	0.593
3.09946	0.601
3.13944	0.612
3.17942	0.614
3.2194	0.571
3.25938	0.599
3.29936	0.593
3.33934	0.507
3.37932	0.347
3.4193	0.395
3.45928	0.489
3.49926	0.479
3.53924	0.612
3.57922	0.64
3.6192	0.66
3.65918	0.67
3.69916	0.685
3.73914	0.686
3.77912	0.691
3.8191	0.708
3.85908	0.719
3.89906	0.724
3.93904	0.729
3.97902	0.736
4.019	0.741
4.05898	0.739
4.09896	0.738
4.13894	0.756
4.17892	0.771
4.2189	0.774
4.25888	0.774
4.29886	0.777
4.33884	0.782
4.37882	0.782
4.4188	0.784
4.45878	0.787
4.49876	0.794
4.53874	0.797
4.57872	0.797
4.6187	0.799
4.65868	0.797
4.69866	0.8
4.73864	0.8
4.77862	0.795
4.8186	0.794
4.85858	0.799
4.89856	0.8
4.93854	0.802
4.97852	0.808
5.0185	0.808
5.05848	0.81
5.09846	0.818
5.13844	0.813
5.17842	0.833
5.2184	0.836
5.25838	0.846
5.29836	0.848
5.33834	0.846
5.37832	0.861
5.4183	0.851
5.45828	0.85
5.49826	0.861
5.53824	0.863
5.57822	0.868
5.6182	0.876
5.65818	0.876
5.69816	0.869
5.73814	0.859
5.77812	0.846
5.8181	0.853
5.85808	0.859
5.89806	0.853
5.93804	0.84
5.97802	0.792
6.018	0.756
6.05798	0.652
6.09796	0.485
6.13794	0.095
6.17792	0.136
6.2179	0.25
6.25788	0.194
6.29786	0.375
6.33784	0.495
6.37782	0.677
6.4178	0.701
6.45778	0.677
6.49776	0.507
6.53774	0.443
6.57772	0.171
6.6177	0.2
6.65768	0.355
6.69766	0.561
6.73764	0.665
6.77762	0.657
6.8176	0.571
6.85758	0.509
6.89756	0.52
6.93754	0.553
6.97752	0.423
7.0175	0.443
7.05748	0.579
7.09746	0.591
7.13744	0.589
7.17742	0.7
7.2174	0.698
7.25738	0.65
7.29736	0.561
7.33734	0.357
7.37732	0.261
7.4173	0.224
7.45728	0.098
7.49726	0.123
7.53724	0.085
7.57722	0.064
7.6172	0.07
7.65718	0.12
7.69716	0.177
7.73714	0.187
7.77712	0.263
7.8171	0.392
7.85708	0.464
7.89706	0.37
7.93704	0.317
7.97702	0.395
8.017	0.497
8.05698	0.5
8.09696	0.52
8.13694	0.57
8.17692	0.604
8.2169	0.675
8.25688	0.733
8.29686	0.759
8.33684	0.771
8.37682	0.787
8.4168	0.774
8.45678	0.719
8.49676	0.7
8.53674	0.719
8.57672	0.744
8.6167	0.784
8.65668	0.779
8.69666	0.696
8.73664	0.5
8.77662	0.332
8.8166	0.309
8.85658	0.079
8.89656	0.07
8.93654	0.214
8.97652	0.337
9.0165	0.4
9.05648	0.413
9.09646	0.367
9.13644	0.311
9.17642	0.309
9.2164	0.345
9.25638	0.439
9.29636	0.556
9.33634	0.632
9.37632	0.662
9.4163	0.616
9.45628	0.584
9.49626	0.668
9.53624	0.701
9.57622	0.728
9.6162	0.733
9.65618	0.741
9.69616	0.736
9.73614	0.733
9.77612	0.726
9.8161	0.714
9.85608	0.738
9.89606	0.764
9.93604	0.779
9.97602	0.79
10.016	0.805
10.056	0.808
10.096	0.807
10.1359	0.81
10.1759	0.81
10.2159	0.818
10.2559	0.818
10.2959	0.808
10.3358	0.828
10.3758	0.841
10.4158	0.848
10.4558	0.859
10.4958	0.864
10.5357	0.869
10.5757	0.873
10.6157	0.883
10.6557	0.889
10.6957	0.896
10.7356	0.892
10.7756	0.856
10.8156	0.731
10.8556	0.784
10.8956	0.794
10.9355	0.667
10.9755	0.726
11.0155	0.81
11.0555	0.808
11.0955	0.799
11.1354	0.812
11.1754	0.82
11.2154	0.835
11.2554	0.843
11.2954	0.851
11.3353	0.85
11.3753	0.85
11.4153	0.84
11.4553	0.818
11.4953	0.777
11.5352	0.757
11.5752	0.779
11.6152	0.818
11.6552	0.861
11.6952	0.884
11.7351	0.897
11.7751	0.897
11.8151	0.883
11.8551	0.859
11.8951	0.766
11.935	0.472
11.975	0.418
12.015	0.598
12.055	0.726
12.095	0.802
12.1349	0.833
12.1749	0.84
12.2149	0.825
12.2549	0.8
12.2949	0.784
12.3348	0.785
12.3748	0.795
12.4148	0.822
12.4548	0.848
12.4948	0.868
12.5347	0.883
12.5747	0.891
12.6147	0.891
12.6547	0.892
12.6947	0.891
12.7346	0.889
12.7746	0.886
12.8146	0.884
12.8546	0.879
12.8946	0.884
12.9345	0.881
12.9745	0.879
13.0145	0.851
13.0545	0.746
13.0945	0.808
13.1344	0.85
13.1744	0.858
13.2144	0.861
13.2544	0.861
13.2944	0.85
13.3343	0.805
13.3743	0.673
13.4143	0.492
13.4543	0.573
13.4943	0.724
13.5342	0.792
13.5742	0.813
13.6142	0.794
13.6542	0.728
13.6942	0.65
13.7341	0.675
13.7741	0.744
13.8141	0.812
13.8541	0.836
13.8941	0.868
13.934	0.878
13.974	0.889
14.014	0.897
14.054	0.899
14.094	0.894
14.1339	0.897
14.1739	0.889
14.2139	0.878
14.2539	0.871
14.2939	0.863
14.3338	0.863
14.3738	0.869
14.4138	0.869
14.4538	0.863
14.4938	0.845
14.5337	0.845
14.5737	0.856
14.6137	0.866
14.6537	0.869
14.6937	0.873
14.7336	0.876
14.7736	0.878
14.8136	0.873
14.8536	0.863
14.8936	0.831
14.9335	0.787
14.9735	0.8
15.0135	0.828
15.0535	0.812
15.0935	0.789
15.1334	0.759
15.1734	0.741
15.2134	0.736
15.2534	0.733
15.2934	0.738
15.3333	0.733
15.3733	0.728
15.4133	0.728
15.4533	0.728
15.4933	0.724
15.5332	0.719
15.5732	0.718
15.6132	0.716
15.6532	0.718
15.6932	0.714
15.7331	0.718
15.7731	0.718
15.8131	0.718
15.8531	0.718
15.8931	0.719
15.933	0.718
15.973	0.716
16.013	0.713
