Infrared Spectrum: 5-Benzoylpentanoic acid
Formula: C 12 H 14 O 3
CAS: 97547-93-8
State: gas
Origin: EPA-IR VAPOR PHASE LIBRARY
1/CM	ABSORBANCE
549.8	0.041157
559.445	0.046587
569.09	0.049287
578.734	0.049887
588.379	0.053097
598.024	0.057167
607.669	0.057237
617.313	0.051897
626.958	0.046917
636.603	0.042127
646.248	0.038797
655.893	0.039077
665.537	0.038557
675.182	0.045227
684.827	0.070807
694.472	0.082957
704.116	0.055827
713.761	0.041787
723.406	0.041167
733.051	0.045257
742.695	0.047207
752.34	0.042237
761.985	0.031647
771.63	0.025517
781.275	0.021857
790.919	0.015677
800.564	0.012467
810.209	0.009347
819.854	0.008457
829.498	0.007847
839.143	0.008997
848.788	0.010437
858.433	0.011317
868.078	0.010887
877.722	0.009737
887.367	0.010297
897.012	0.010647
906.657	0.011527
916.301	0.013497
925.946	0.015367
935.591	0.015687
945.236	0.018197
954.88	0.026527
964.525	0.033597
974.17	0.033587
983.815	0.035537
993.46	0.041617
1003.1	0.048417
1012.75	0.038777
1022.39	0.038387
1032.04	0.038937
1041.68	0.041437
1051.33	0.047077
1060.97	0.051727
1070.62	0.059527
1080.26	0.065927
1089.91	0.072937
1099.55	0.096307
1109.2	0.144297
1118.84	0.202387
1128.49	0.177417
1138.13	0.124087
1147.78	0.095247
1157.42	0.085737
1167.07	0.083147
1176.71	0.099247
1186.36	0.092237
1196	0.083037
1205.64	0.091957
1215.29	0.104257
1224.93	0.101947
1234.58	0.087157
1244.22	0.081217
1253.87	0.079757
1263.51	0.086397
1273.16	0.084067
1282.8	0.072837
1292.45	0.059837
1302.09	0.049777
1311.74	0.048087
1321.38	0.048357
1331.03	0.047257
1340.67	0.051817
1350.32	0.062857
1359.96	0.069567
1369.61	0.066807
1379.25	0.059417
1388.9	0.047817
1398.54	0.034427
1408.18	0.029027
1417.83	0.029737
1427.47	0.030997
1437.12	0.036507
1446.76	0.055487
1456.41	0.044187
1466.05	0.026707
1475.7	0.015497
1485.34	0.010217
1494.99	0.008257
1504.63	0.006797
1514.28	0.006207
1523.92	0.006257
1533.57	0.006527
1543.21	0.006777
1552.86	0.006657
1562.5	0.007867
1572.15	0.012777
1581.79	0.018197
1591.44	0.020097
1601.08	0.021597
1610.73	0.013037
1620.37	0.009107
1630.01	0.007627
1639.66	0.008207
1649.3	0.010967
1658.95	0.015827
1668.59	0.023227
1678.24	0.042377
1687.88	0.105727
1697.53	0.204877
1707.17	0.187877
1716.82	0.083957
1726.46	0.052867
1736.11	0.062687
1745.75	0.092387
1755.4	0.137857
1765.04	0.209967
1774.69	0.287677
1784.33	0.246397
1793.98	0.155407
1803.62	0.097047
1813.27	0.052947
1822.91	0.027377
1832.55	0.015757
1842.2	0.010057
1851.84	0.007497
1861.49	0.006307
1871.13	0.005807
1880.78	0.005987
1890.42	0.006267
1900.07	0.006437
1909.71	0.005547
1919.36	0.004697
1929	0.004017
1938.65	0.004197
1948.29	0.005557
1957.94	0.005957
1967.58	0.005757
1977.23	0.004197
1986.87	0.002947
1996.52	0.002567
2006.16	0.002317
2015.81	0.002137
2025.45	0.002207
2035.1	0.001937
2044.74	0.001887
2054.38	0.001827
2064.03	0.001667
2073.67	0.001657
2083.32	0.001517
2092.96	0.001507
2102.61	0.001527
2112.25	0.001527
2121.9	0.001607
2131.54	0.001737
2141.19	0.001837
2150.83	0.001747
2160.48	0.001867
2170.12	0.002007
2179.77	0.001957
2189.41	0.001907
2199.06	0.001997
2208.7	0.002057
2218.35	0.002147
2227.99	0.002407
2237.64	0.002287
2247.28	0.002297
2256.92	0.002187
2266.57	0.002087
2276.21	0.002177
2285.86	0.002147
2295.5	0.001927
2305.15	0.002057
2314.79	0.002537
2324.44	0.002757
2334.08	0.002427
2343.73	0.002357
2353.37	0.002147
2363.02	0.002047
2372.66	0.001837
2382.31	0.002047
2391.95	0.001977
2401.6	0.002007
2411.24	0.002077
2420.89	0.001967
2430.53	0.001917
2440.18	0.001837
2449.82	0.001867
2459.47	0.001607
2469.11	0.001657
2478.75	0.001577
2488.4	0.001647
2498.04	0.001437
2507.69	0.001507
2517.33	0.001437
2526.98	0.001337
2536.62	0.001357
2546.27	0.001467
2555.91	0.001387
2565.56	0.001357
2575.2	0.001537
2584.85	0.001527
2594.49	0.001717
2604.14	0.001617
2613.78	0.001497
2623.43	0.001477
2633.07	0.001667
2642.72	0.001557
2652.36	0.001437
2662.01	0.001647
2671.65	0.001887
2681.29	0.001907
2690.94	0.001997
2700.58	0.002107
2710.23	0.001757
2719.87	0.001887
2729.52	0.001767
2739.16	0.001987
2748.81	0.001997
2758.45	0.002357
2768.1	0.002537
2777.74	0.002437
2787.39	0.002987
2797.03	0.003217
2806.68	0.003847
2816.32	0.004947
2825.97	0.005427
2835.61	0.006187
2845.26	0.008507
2854.9	0.012137
2864.55	0.019197
2874.19	0.026067
2883.84	0.026387
2893.48	0.025717
2903.12	0.030237
2912.77	0.035367
2922.41	0.044787
2932.06	0.056217
2941.7	0.066287
2951.35	0.073057
2960.99	0.069547
2970.64	0.055157
2980.28	0.035117
2989.93	0.021007
2999.57	0.013637
3009.22	0.010977
3018.86	0.011817
3028.51	0.016387
3038.15	0.020707
3047.8	0.019807
3057.44	0.024467
3067.09	0.038817
3076.73	0.040447
3086.38	0.029977
3096.02	0.022667
3105.67	0.013307
3115.31	0.006567
3124.95	0.003497
3134.6	0.002427
3144.24	0.002477
3153.89	0.002377
3163.53	0.002017
3173.18	0.001627
3182.82	0.0012457
3192.47	0.0011929
3202.11	0.0009992
3211.76	0.0009007
3221.4	0.000604
3231.05	0.000397
3240.69	0.0006806
3250.34	0.0007152
3259.98	0.0005232
3269.63	0.0006964
3279.27	0.0002453
3288.92	0.001146
3298.56	0.0008279
3308.21	0.0005637
3317.85	0.0009432
3327.49	0.0008549
3337.14	0.0005621
3346.78	0.000922
3356.43	0.002037
3366.07	0.002407
3375.72	0.003217
3385.36	0.003627
3395.01	0.003227
3404.65	0.001997
3414.3	0.001477
3423.94	0.0011657
3433.59	0.0007119
3443.23	0.001357
3452.88	0.0008456
3462.52	0.001347
3472.17	0.001407
3481.81	0.001637
3491.46	0.002517
3501.1	0.002277
3510.75	0.003407
3520.39	0.004047
3530.04	0.004857
3539.68	0.006857
3549.32	0.011827
3558.97	0.026357
3568.61	0.084557
3578.26	0.110947
3587.9	0.032347
3597.55	0.011747
3607.19	0.005727
3616.84	0.003507
3626.48	0.002537
3636.13	0.002047
3645.77	0.002157
3655.42	0.001657
3665.06	0.0012193
3674.71	0.0009322
3684.35	0.001147
3694	0.0008737
3703.64	0.0009803
3713.29	0.0010492
3722.93	0.0009164
3732.58	0.0009074
3742.22	0.0002608
3751.86	0
3761.51	0.00036027
3771.15	0.0005529
3780.8	0.0008614
3790.44	0.0008128
3800.09	0.000894
3809.73	0.0005164
3819.38	0.0005475
3829.02	0.0006584
3838.67	0.00066
3848.31	0.0008026
3857.96	0.00016
3867.6	0.0005051
3877.25	0.0006782
3886.89	0.0005311
3896.54	0.0006007
3906.18	0.0007276
3915.83	0.0007858
3925.47	0.0005831
3935.12	0.0005185
3944.76	0.000482
3954.41	0.0004365
3964.05	0.0009923
3973.69	0.0010036
3983.34	0.0005337
3992.98	0.0012131
