Infrared Spectrum: BENZO[b]PHENAZINE-6,11-DIONE
Formula: C16 H8 N2 O2
CAS: 97594-66-6
State: SOLID (KBr PRESSING)
Melting point: 334 C
Class: COBLENTZ
Instrument: Not specified, most likely a prism, grating, or hybrid spectrometer.
Sampling: TRANSMISSION
Resolution: 4
Origin: EASTMAN KODAK COMPANY, RESEARCH LABORATORIES, ROCHESTER, N.Y.
MICROMETERS	TRANSMITTANCE
2.027	0.531
2.06704	0.542
2.10707	0.552
2.14711	0.563
2.18714	0.568
2.22718	0.578
2.26722	0.585
2.30725	0.593
2.34729	0.595
2.38733	0.606
2.42736	0.614
2.4674	0.618
2.50743	0.622
2.54747	0.627
2.58751	0.637
2.62754	0.647
2.66758	0.657
2.70762	0.657
2.74765	0.629
2.78769	0.577
2.82772	0.514
2.86776	0.488
2.9078	0.473
2.94783	0.485
2.98787	0.527
3.02791	0.595
3.06794	0.626
3.10798	0.642
3.14801	0.663
3.18805	0.69
3.22809	0.675
3.26812	0.567
3.30816	0.6
3.3482	0.695
3.38823	0.709
3.42827	0.727
3.4683	0.737
3.50834	0.747
3.54838	0.759
3.58841	0.77
3.62845	0.775
3.66849	0.778
3.70852	0.78
3.74856	0.781
3.78859	0.777
3.82863	0.786
3.86867	0.803
3.9087	0.813
3.94874	0.816
3.98878	0.819
4.02881	0.818
4.06885	0.829
4.10888	0.831
4.14892	0.84
4.18896	0.837
4.22899	0.824
4.26903	0.844
4.30907	0.857
4.3491	0.862
4.38914	0.832
4.42917	0.854
4.46921	0.862
4.50925	0.865
4.54928	0.868
4.58932	0.868
4.62936	0.868
4.66939	0.87
4.70943	0.867
4.74946	0.877
4.7895	0.878
4.82954	0.88
4.86957	0.881
4.90961	0.883
4.94965	0.881
4.98968	0.878
5.02972	0.85
5.06975	0.84
5.10979	0.87
5.14983	0.881
5.18986	0.896
5.2299	0.893
5.26993	0.891
5.30997	0.891
5.35001	0.868
5.39004	0.885
5.43008	0.89
5.47012	0.911
5.51015	0.913
5.55019	0.913
5.59022	0.904
5.63026	0.877
5.6703	0.873
5.71033	0.877
5.75037	0.88
5.79041	0.89
5.83044	0.865
5.87048	0.731
5.91051	0.518
5.95055	0.085
5.99059	0.226
6.03062	0.601
6.07066	0.736
6.1107	0.731
6.15073	0.739
6.19077	0.727
6.2308	0.439
6.27084	0.242
6.31088	0.447
6.35091	0.55
6.39095	0.765
6.43099	0.767
6.47102	0.767
6.51106	0.811
6.55109	0.777
6.59113	0.655
6.63117	0.545
6.6712	0.747
6.71124	0.708
6.75128	0.398
6.79131	0.686
6.83135	0.462
6.87138	0.713
6.91142	0.683
6.95146	0.829
6.99149	0.845
7.03153	0.867
7.07157	0.862
7.1116	0.801
7.15164	0.575
7.19167	0.511
7.23171	0.575
7.27175	0.752
7.31178	0.829
7.35182	0.798
7.39186	0.431
7.43189	0.719
7.47193	0.329
7.51196	0.098
7.552	0.054
7.59204	0.134
7.63207	0.129
7.67211	0.083
7.71215	0.298
7.75218	0.542
7.79222	0.637
7.83225	0.65
7.87229	0.704
7.91233	0.742
7.95236	0.759
7.9924	0.795
8.03243	0.752
8.07247	0.432
8.11251	0.281
8.15254	0.426
8.19258	0.518
8.23262	0.452
8.27265	0.113
8.31269	0.106
8.35272	0.437
8.39276	0.686
8.4328	0.721
8.47283	0.767
8.51287	0.814
8.55291	0.806
8.59294	0.79
8.63298	0.79
8.67301	0.803
8.71305	0.773
8.75309	0.431
8.79312	0.555
8.83316	0.413
8.8732	0.493
8.91323	0.706
8.95327	0.752
8.9933	0.79
9.03334	0.809
9.07338	0.85
9.11341	0.86
9.15345	0.845
9.19349	0.86
9.23352	0.89
9.27356	0.886
9.31359	0.893
9.35363	0.903
9.39367	0.908
9.4337	0.909
9.47374	0.921
9.51378	0.919
9.55381	0.886
9.59385	0.793
9.63388	0.432
9.67392	0.691
9.71396	0.854
9.75399	0.877
9.79403	0.885
9.83407	0.895
9.8741	0.891
9.91414	0.773
9.95417	0.57
9.99421	0.708
10.0342	0.783
10.0743	0.734
10.1143	0.524
10.1544	0.168
10.1944	0.063
10.2344	0.098
10.2745	0.365
10.3145	0.529
10.3545	0.644
10.3946	0.742
10.4346	0.831
10.4746	0.86
10.5147	0.865
10.5547	0.726
10.5948	0.736
10.6348	0.834
10.6748	0.86
10.7149	0.88
10.7549	0.901
10.7949	0.921
10.835	0.936
10.875	0.937
10.915	0.939
10.9551	0.939
10.9951	0.922
11.0352	0.919
11.0752	0.932
11.1152	0.937
11.1553	0.919
11.1953	0.906
11.2353	0.895
11.2754	0.916
11.3154	0.931
11.3554	0.932
11.3955	0.931
11.4355	0.922
11.4756	0.94
11.5156	0.939
11.5556	0.934
11.5957	0.927
11.6357	0.934
11.6757	0.942
11.7158	0.921
11.7558	0.872
11.7958	0.906
11.8359	0.934
11.8759	0.932
11.9159	0.939
11.956	0.926
11.996	0.924
12.0361	0.916
12.0761	0.926
12.1161	0.926
12.1562	0.926
12.1962	0.919
12.2362	0.909
12.2763	0.89
12.3163	0.881
12.3563	0.85
12.3964	0.8
12.4364	0.844
12.4765	0.857
12.5165	0.857
12.5565	0.821
12.5966	0.772
12.6366	0.754
12.6766	0.729
12.7167	0.539
12.7567	0.232
12.7967	0.163
12.8368	0.2
12.8768	0.219
12.9169	0.19
12.9569	0.181
12.9969	0.259
13.037	0.313
13.077	0.414
13.117	0.595
13.1571	0.7
13.1971	0.765
13.2371	0.801
13.2772	0.819
13.3172	0.826
13.3573	0.836
13.3973	0.84
13.4373	0.832
13.4774	0.839
13.5174	0.837
13.5574	0.834
13.5975	0.814
13.6375	0.793
13.6775	0.811
13.7176	0.808
13.7576	0.798
13.7977	0.781
13.8377	0.7
13.8777	0.521
13.9178	0.349
13.9578	0.24
13.9978	0.254
14.0379	0.352
14.0779	0.503
14.1179	0.611
14.158	0.668
14.198	0.69
14.2381	0.698
14.2781	0.7
14.3181	0.7
14.3582	0.7
14.3982	0.698
14.4382	0.688
14.4783	0.685
14.5183	0.685
14.5583	0.668
14.5984	0.665
14.6384	0.66
14.6784	0.657
14.7185	0.645
14.7585	0.627
14.7986	0.604
14.8386	0.567
14.8786	0.549
14.9187	0.624
14.9587	0.629
14.9987	0.488
15.0388	0.568
15.0788	0.596
15.1188	0.6
15.1589	0.591
15.1989	0.59
15.239	0.581
15.279	0.578
15.319	0.573
15.3591	0.567
15.3991	0.555
15.4391	0.552
15.4792	0.55
15.5192	0.544
15.5592	0.54
15.5993	0.537
15.6393	0.537
15.6794	0.531
15.7194	0.527
15.7594	0.527
15.7995	0.532
15.8395	0.526
15.8795	0.522
15.9196	0.518
15.9596	0.508
