Infrared Spectrum: 6,11-DINITROBENZO[b]PHENAZINE
Formula: C16 H8 04 N4
CAS: 97620-84-3
State: SOLID (KBr PRESSING)
Melting point: 285 C
Class: COBLENTZ
Instrument: Not specified, most likely a prism, grating, or hybrid spectrometer.
Sampling: TRANSMISSION
Resolution: 4
Origin: EASTMAN KODAK COMPANY, RESEARCH LABORATORIES, ROCHESTER, N.Y.
MICROMETERS	TRANSMITTANCE
2.02	0.39
2.05991	0.396
2.09981	0.4
2.13972	0.421
2.17962	0.427
2.21953	0.436
2.25943	0.439
2.29934	0.452
2.33925	0.462
2.37915	0.467
2.41906	0.468
2.45896	0.468
2.49887	0.478
2.53877	0.49
2.57868	0.509
2.61859	0.522
2.65849	0.532
2.6984	0.532
2.7383	0.532
2.77821	0.514
2.81811	0.491
2.85802	0.478
2.89793	0.472
2.93783	0.481
2.97774	0.493
3.01764	0.518
3.05755	0.527
3.09745	0.534
3.13736	0.544
3.17727	0.56
3.21717	0.555
3.25708	0.521
3.29698	0.532
3.33689	0.567
3.37679	0.583
3.4167	0.586
3.45661	0.581
3.49651	0.598
3.53642	0.611
3.57632	0.624
3.61623	0.64
3.65613	0.649
3.69604	0.652
3.73595	0.66
3.77585	0.675
3.81576	0.678
3.85566	0.681
3.89557	0.69
3.93547	0.7
3.97538	0.696
4.01529	0.7
4.05519	0.721
4.0951	0.721
4.135	0.729
4.17491	0.726
4.21481	0.739
4.25472	0.749
4.29463	0.762
4.33453	0.773
4.37444	0.76
4.41434	0.767
4.45425	0.777
4.49415	0.778
4.53406	0.778
4.57397	0.78
4.61387	0.783
4.65378	0.785
4.69368	0.785
4.73359	0.793
4.77349	0.798
4.8134	0.798
4.8533	0.8
4.89321	0.808
4.93312	0.814
4.97302	0.809
5.01293	0.811
5.05283	0.8
5.09274	0.786
5.13264	0.786
5.17255	0.798
5.21246	0.813
5.25236	0.834
5.29227	0.837
5.33217	0.842
5.37208	0.847
5.41198	0.836
5.45189	0.832
5.4918	0.829
5.5317	0.852
5.57161	0.854
5.61151	0.859
5.65142	0.854
5.69132	0.842
5.73123	0.821
5.77114	0.803
5.81104	0.8
5.85095	0.731
5.89085	0.7
5.93076	0.675
5.97066	0.67
6.01057	0.742
6.05048	0.79
6.09038	0.79
6.13029	0.75
6.17019	0.691
6.2101	0.713
6.25	0.701
6.28991	0.65
6.32982	0.539
6.36972	0.554
6.40963	0.539
6.44953	0.216
6.48944	0.106
6.52934	0.077
6.56925	0.088
6.60916	0.298
6.64906	0.429
6.68897	0.519
6.72887	0.539
6.76878	0.621
6.80868	0.659
6.84859	0.442
6.8885	0.4
6.9284	0.611
6.96831	0.642
7.00821	0.686
7.04812	0.695
7.08802	0.691
7.12793	0.459
7.16784	0.321
7.20774	0.36
7.24765	0.191
7.28755	0.137
7.32746	0.332
7.36736	0.452
7.40727	0.414
7.44718	0.291
7.48708	0.25
7.52699	0.28
7.56689	0.385
7.6068	0.485
7.6467	0.47
7.68661	0.16
7.72652	0.309
7.76642	0.488
7.80633	0.514
7.84623	0.519
7.88614	0.6
7.92604	0.683
7.96595	0.718
8.00586	0.724
8.04576	0.708
8.08567	0.696
8.12557	0.66
8.16548	0.581
8.20538	0.639
8.24529	0.65
8.2852	0.645
8.3251	0.657
8.36501	0.713
8.40491	0.749
8.44482	0.781
8.48472	0.791
8.52463	0.785
8.56454	0.785
8.60444	0.801
8.64435	0.813
8.68425	0.808
8.72416	0.75
8.76406	0.388
8.80397	0.449
8.84388	0.59
8.88378	0.698
8.92369	0.747
8.96359	0.768
9.0035	0.777
9.0434	0.783
9.08331	0.8
9.12322	0.804
9.16312	0.808
9.20303	0.819
9.24293	0.827
9.28284	0.831
9.32274	0.842
9.36265	0.832
9.40256	0.834
9.44246	0.85
9.48237	0.859
9.52227	0.86
9.56218	0.862
9.60208	0.862
9.64199	0.822
9.6819	0.79
9.7218	0.84
9.76171	0.86
9.80161	0.859
9.84152	0.831
9.88142	0.772
9.92133	0.719
9.96123	0.685
10.0011	0.727
10.041	0.786
10.081	0.819
10.1209	0.829
10.1608	0.844
10.2007	0.836
10.2406	0.813
10.2805	0.801
10.3204	0.75
10.3603	0.811
10.4002	0.847
10.4401	0.862
10.48	0.84
10.5199	0.852
10.5598	0.86
10.5997	0.868
10.6396	0.886
10.6795	0.895
10.7194	0.911
10.7593	0.916
10.7993	0.911
10.8392	0.908
10.8791	0.906
10.919	0.903
10.9589	0.904
10.9988	0.904
11.0387	0.922
11.0786	0.927
11.1185	0.922
11.1584	0.906
11.1983	0.906
11.2382	0.921
11.2781	0.909
11.318	0.908
11.3579	0.911
11.3978	0.918
11.4377	0.903
11.4777	0.873
11.5176	0.704
11.5575	0.524
11.5974	0.66
11.6373	0.819
11.6772	0.872
11.7171	0.89
11.757	0.9
11.7969	0.908
11.8368	0.906
11.8767	0.88
11.9166	0.801
11.9565	0.827
11.9964	0.867
12.0363	0.847
12.0762	0.836
12.1161	0.845
12.156	0.862
12.196	0.881
12.2359	0.888
12.2758	0.89
12.3157	0.809
12.3556	0.404
12.3955	0.081
12.4354	0.132
12.4753	0.45
12.5152	0.655
12.5551	0.749
12.595	0.775
12.6349	0.78
12.6748	0.708
12.7147	0.665
12.7546	0.67
12.7945	0.663
12.8344	0.681
12.8744	0.604
12.9143	0.49
12.9542	0.437
12.9941	0.326
13.034	0.177
13.0739	0.124
13.1138	0.113
13.1537	0.118
13.1936	0.178
13.2335	0.306
13.2734	0.431
13.3133	0.426
13.3532	0.286
13.3931	0.231
13.433	0.326
13.4729	0.437
13.5128	0.552
13.5527	0.622
13.5927	0.696
13.6326	0.754
13.6725	0.801
13.7124	0.814
13.7523	0.822
13.7922	0.834
13.8321	0.847
13.872	0.836
13.9119	0.826
13.9518	0.839
13.9917	0.85
14.0316	0.855
14.0715	0.863
14.1114	0.875
14.1513	0.878
14.1912	0.883
14.2311	0.88
14.2711	0.87
14.311	0.867
14.3509	0.862
14.3908	0.859
14.4307	0.857
14.4706	0.86
14.5105	0.867
14.5504	0.868
14.5903	0.88
14.6302	0.881
14.6701	0.878
14.71	0.868
14.7499	0.867
14.7898	0.863
14.8297	0.865
14.8696	0.863
14.9095	0.867
14.9494	0.859
14.9894	0.831
15.0293	0.822
15.0692	0.827
15.1091	0.832
15.149	0.829
15.1889	0.816
15.2288	0.806
15.2687	0.8
15.3086	0.786
15.3485	0.773
15.3884	0.763
15.4283	0.75
15.4682	0.747
15.5081	0.737
15.548	0.729
15.5879	0.727
15.6278	0.722
15.6678	0.718
15.7077	0.718
15.7476	0.709
15.7875	0.698
15.8274	0.69
15.8673	0.688
15.9072	0.681
15.9471	0.675
15.987	0.665
