Infrared Spectrum: Ethylamine], 2,2'-DithioBis[N-3-Picolinylidine-
Formula: C16 H18 N4 S2
CAS: 97753-52-1
State: SOLID (NEAT, MELT)
Class: COBLENTZ III
Instrument: PERKIN-ELMER 221 (GRATING)
Instrument parameters: FILTER AT 2490, 980 CM^-^1. GRATING 4000-1428 CM^-^1, NaCl PRISM 1428-650 CM^-^1
Sampling: TRANSMISSION
Path length: CAPILLARY
Resolution: 2
Origin: SOUTHERN RESEARCH INSTITUTE
1/CM	TRANSMITTANCE
633.34	0.6826
642.369	0.6747
651.399	0.6297
660.428	0.6069
669.458	0.6912
678.487	0.6926
687.516	0.6557
696.546	0.5083
705.575	0.0683
714.604	0.3902
723.634	0.6004
732.663	0.7287
741.693	0.7707
750.722	0.7694
759.751	0.7544
768.781	0.7409
777.81	0.7244
786.839	0.6644
795.869	0.4156
804.898	0.1688
813.928	0.3259
822.957	0.5091
831.986	0.6288
841.016	0.6777
850.045	0.571
859.074	0.3516
868.104	0.599
877.133	0.8119
886.163	0.8358
895.192	0.8367
904.221	0.8322
913.251	0.7863
922.28	0.7412
931.309	0.699
940.339	0.6198
949.368	0.6532
958.398	0.6102
967.427	0.4504
976.456	0.494
985.486	0.5152
994.515	0.4923
1003.54	0.5086
1012.57	0.4416
1021.6	0.1232
1030.63	0.2318
1039.66	0.4828
1048.69	0.6057
1057.72	0.6403
1066.75	0.6586
1075.78	0.755
1084.81	0.7359
1093.84	0.5864
1102.87	0.6766
1111.9	0.66
1120.93	0.6421
1129.96	0.7909
1138.99	0.8273
1148.01	0.8177
1157.04	0.7844
1166.07	0.729
1175.1	0.6504
1184.13	0.4066
1193.16	0.4155
1202.19	0.5435
1211.22	0.4446
1220.25	0.3495
1229.28	0.4291
1238.31	0.5405
1247.34	0.4677
1256.37	0.5889
1265.4	0.4715
1274.43	0.4385
1283.46	0.5126
1292.48	0.6989
1301.51	0.723
1310.54	0.682
1319.57	0.1236
1328.6	0.3347
1337.63	0.4168
1346.66	0.5762
1355.69	0.6368
1364.72	0.3871
1373.75	0.2635
1382.78	0.4992
1391.81	0.4964
1400.84	0.3853
1409.87	0.1828
1418.9	0.1429
1427.93	0.2796
1436.95	0.3482
1445.98	0.3471
1455.01	0.519
1464.04	0.5092
1473.07	0.395
1482.1	0.435
1491.13	0.8272
1500.16	0.8534
1509.19	0.8552
1518.22	0.854
1527.25	0.8522
1536.28	0.8492
1545.31	0.8353
1554.34	0.6851
1563.37	0.5603
1572.4	0.1822
1581.42	0.361
1590.45	0.1153
1599.48	0.5655
1608.51	0.718
1617.54	0.6715
1626.57	0.6228
1635.6	0.1707
1644.63	0.0691
1653.66	0.2528
1662.69	0.5855
1671.72	0.732
1680.75	0.7822
1689.78	0.7917
1698.81	0.7954
1707.84	0.7992
1716.87	0.8478
1725.89	0.8645
1734.92	0.876
1743.95	0.8814
1752.98	0.8864
1762.01	0.8917
1771.04	0.8966
1780.07	0.899
1789.1	0.9048
1798.13	0.9079
1807.16	0.9081
1816.19	0.9063
1825.22	0.9024
1834.25	0.8925
1843.28	0.8842
1852.31	0.8815
1861.34	0.8763
1870.36	0.8663
1879.39	0.851
1888.42	0.8304
1897.45	0.8249
1906.48	0.821
1915.51	0.8218
1924.54	0.8275
1933.57	0.8352
1942.6	0.8441
1951.63	0.8524
1960.66	0.8576
1969.69	0.859
1978.72	0.8729
1987.75	0.8901
1996.78	0.8971
2005.81	0.9011
2014.83	0.9044
2023.86	0.9066
2032.89	0.9071
2041.92	0.9065
2050.95	0.9067
2059.98	0.908
2069.01	0.9168
2078.04	0.9248
2087.07	0.9286
2096.1	0.9295
2105.13	0.9293
2114.16	0.9281
2123.19	0.927
2132.22	0.9259
2141.25	0.9248
2150.28	0.9237
2159.3	0.9222
2168.33	0.9208
2177.36	0.9194
2186.39	0.9173
2195.42	0.9151
2204.45	0.9131
2213.48	0.9112
2222.51	0.9105
2231.54	0.9128
2240.57	0.9159
2249.6	0.9189
2258.63	0.9195
2267.66	0.9199
2276.69	0.9202
2285.72	0.9207
2294.75	0.9213
2303.77	0.921
2312.8	0.9208
2321.83	0.9212
2330.86	0.9214
2339.89	0.9203
2348.92	0.9192
2357.95	0.9186
2366.98	0.9184
2376.01	0.9185
2385.04	0.9184
2394.07	0.9183
2403.1	0.9154
2412.13	0.9112
2421.16	0.9068
2430.19	0.9048
2439.22	0.9054
2448.24	0.9063
2457.27	0.9078
2466.3	0.9088
2475.33	0.9094
2484.36	0.9132
2493.39	0.9196
2502.42	0.9216
2511.45	0.922
2520.48	0.9206
2529.51	0.9189
2538.54	0.917
2547.57	0.9139
2556.6	0.9104
2565.63	0.9073
2574.66	0.9046
2583.69	0.8965
2592.71	0.8891
2601.74	0.8857
2610.77	0.883
2619.8	0.8807
2628.83	0.8798
2637.86	0.8788
2646.89	0.8788
2655.92	0.88
2664.95	0.882
2673.98	0.8854
2683.01	0.8874
2692.04	0.8866
2701.07	0.8839
2710.1	0.8782
2719.13	0.8679
2728.16	0.8514
2737.18	0.8461
2746.21	0.8468
2755.24	0.8472
2764.27	0.8386
2773.3	0.8177
2782.33	0.7882
2791.36	0.7538
2800.39	0.7127
2809.42	0.649
2818.45	0.4708
2827.48	0.2787
2836.51	0.2607
2845.54	0.2651
2854.57	0.2856
2863.6	0.3361
2872.63	0.3351
2881.65	0.3367
2890.68	0.3479
2899.71	0.3507
2908.74	0.3586
2917.77	0.3949
2926.8	0.4829
2935.83	0.5673
2944.86	0.5764
2953.89	0.5709
2962.92	0.5716
2971.95	0.5892
2980.98	0.6251
2990.01	0.6269
2999.04	0.6201
3008.07	0.597
3017.1	0.5088
3026.12	0.4441
3035.15	0.5261
3044.18	0.5524
3053.21	0.5756
3062.24	0.6893
3071.27	0.6802
3080.3	0.6928
3089.33	0.785
3098.36	0.828
3107.39	0.8342
3116.42	0.836
3125.45	0.8361
3134.48	0.8365
3143.51	0.8526
3152.54	0.858
3161.57	0.8577
3170.59	0.8584
3179.62	0.8614
3188.65	0.8602
3197.68	0.8564
3206.71	0.8513
3215.74	0.8471
3224.77	0.8431
3233.8	0.8381
3242.83	0.832
3251.86	0.8187
3260.89	0.7987
3269.92	0.7833
3278.95	0.79
3287.98	0.8398
3297.01	0.8518
3306.04	0.856
3315.06	0.8567
3324.09	0.8562
3333.12	0.8551
3342.15	0.8534
3351.18	0.8509
3360.21	0.849
3369.24	0.8473
3378.27	0.8463
3387.3	0.8454
3396.33	0.8458
3405.36	0.8461
3414.39	0.8477
3423.42	0.8499
3432.45	0.8524
3441.48	0.8556
3450.51	0.8587
3459.53	0.8616
3468.56	0.8645
3477.59	0.8676
3486.62	0.8707
3495.65	0.8741
3504.68	0.8777
3513.71	0.8826
3522.74	0.894
3531.77	0.8982
3540.8	0.9017
3549.83	0.9048
3558.86	0.908
3567.89	0.9102
3576.92	0.9123
3585.95	0.914
3594.98	0.9154
3604	0.9169
3613.03	0.918
3622.06	0.9188
3631.09	0.9196
3640.12	0.9203
3649.15	0.9208
3658.18	0.9211
3667.21	0.9215
3676.24	0.9219
3685.27	0.9223
3694.3	0.9228
3703.33	0.9232
3712.36	0.9226
3721.39	0.9216
3730.42	0.9216
3739.45	0.922
3748.47	0.9224
3757.5	0.9228
3766.53	0.9233
3775.56	0.9232
3784.59	0.9227
3793.62	0.9227
3802.65	0.9225
3811.68	0.9219
3820.71	0.9213
3829.74	0.9208
3838.77	0.9205
3847.8	0.9202
3856.83	0.92
3865.86	0.92
3874.89	0.9201
3883.92	0.9201
3892.94	0.9201
3901.97	0.92
