Infrared Spectrum: p-Tritylphenol
Formula: C 25 H 20 O
CAS: 978-86-9
State: gas
Origin: EPA-IR VAPOR PHASE LIBRARY
1/CM	ABSORBANCE
549.8	0.0009591
559.445	0.0007842
569.09	0.0012363
578.734	0.0052463
588.379	0.0043463
598.024	0.0010159
607.669	0.0007956
617.313	0.0017663
626.958	0.0054763
636.603	0.0033163
646.248	0.0015063
655.893	0.001037
665.537	0.0012663
675.182	0.0022963
684.827	0.0034563
694.472	0.0113763
704.116	0.0207763
713.761	0.0066963
723.406	0.0039963
733.051	0.0034163
742.695	0.0086363
752.34	0.0072963
761.985	0.0045663
771.63	0.0016563
781.275	0.0011563
790.919	0.0011663
800.564	0.0025363
810.209	0.0043563
819.854	0.0069963
829.498	0.0064563
839.143	0.0022163
848.788	0.0013263
858.433	0.0009074
868.078	0.0009666
877.722	0.0009569
887.367	0.0015063
897.012	0.0013163
906.657	0.0005503
916.301	0.0004479
925.946	0.0005728
935.591	0.000382
945.236	0.0005003
954.88	0.0004924
964.525	0.0004625
974.17	0.0004289
983.815	0.0005973
993.46	0.000621
1003.1	0.0014063
1012.75	0.0014463
1022.39	0.0014363
1032.04	0.0035463
1041.68	0.0023763
1051.33	0.0006312
1060.97	0.0008413
1070.62	0.0009211
1080.26	0.0016063
1089.91	0.0011863
1099.55	0.0020263
1109.2	0.0027163
1118.84	0.0017963
1128.49	0.0025563
1138.13	0.0029063
1147.78	0.0028863
1157.42	0.0053263
1167.07	0.0161763
1176.71	0.0321263
1186.36	0.0130163
1196	0.0064863
1205.64	0.0033863
1215.29	0.0024363
1224.93	0.0023263
1234.58	0.0023763
1244.22	0.0036163
1253.87	0.0098063
1263.51	0.0136863
1273.16	0.0043363
1282.8	0.0023163
1292.45	0.0011563
1302.09	0.0009196
1311.74	0.0010238
1321.38	0.0018763
1331.03	0.0036963
1340.67	0.0023463
1350.32	0.0014263
1359.96	0.0011463
1369.61	0.0009526
1379.25	0.0008907
1388.9	0.000884
1398.54	0.000886
1408.18	0.001069
1417.83	0.0023963
1427.47	0.0031763
1437.12	0.0033763
1446.76	0.0050463
1456.41	0.0024463
1466.05	0.0025163
1475.7	0.0034763
1485.34	0.0075463
1494.99	0.0134263
1504.63	0.0190263
1514.28	0.0159763
1523.92	0.0031963
1533.57	0.0020263
1543.21	0.0017663
1552.86	0.0017563
1562.5	0.0016263
1572.15	0.0020463
1581.79	0.0034663
1591.44	0.0071263
1601.08	0.0083463
1610.73	0.0070563
1620.37	0.0039763
1630.01	0.0012663
1639.66	0.0008408
1649.3	0.000753
1658.95	0.0007229
1668.59	0.0005345
1678.24	0.000595
1687.88	0.0005845
1697.53	0.0005184
1707.17	0.0004856
1716.82	0.0004654
1726.46	0.0004211
1736.11	0.0004911
1745.75	0.0005121
1755.4	0.0006262
1765.04	0.000792
1774.69	0.0008447
1784.33	0.0005856
1793.98	0.0006477
1803.62	0.0012263
1813.27	0.0012963
1822.91	0.0007657
1832.55	0.0005267
1842.2	0.0005534
1851.84	0.0006304
1861.49	0.0007573
1871.13	0.0007318
1880.78	0.0007306
1890.42	0.0008518
1900.07	0.0010057
1909.71	0.0008669
1919.36	0.0006251
1929	0.0005219
1938.65	0.0009643
1948.29	0.0013363
1957.94	0.0010497
1967.58	0.0005927
1977.23	0.0004215
1986.87	0.000394
1996.52	0.0003721
2006.16	0.0002794
2015.81	0.0002906
2025.45	0.0003149
2035.1	0.0001921
2044.74	0.0002799
2054.38	0.0002947
2064.03	0.0003823
2073.67	0.0003952
2083.32	0.000346
2092.96	0.0003103
2102.61	0.0002742
2112.25	0.0002139
2121.9	0.00018516
2131.54	0.0002023
2141.19	0.0002621
2150.83	0.0002121
2160.48	0.0002108
2170.12	0.0001959
2179.77	0.0001921
2189.41	0.0002193
2199.06	0.000205
2208.7	0.0002232
2218.35	0.0001995
2227.99	0.0002599
2237.64	0.00015295
2247.28	0.0002681
2256.92	0.0002503
2266.57	0.0001953
2276.21	0.0002994
2285.86	0.0002791
2295.5	0.0002624
2305.15	0.0002983
2314.79	0.0004702
2324.44	0.0003708
2334.08	0.0003295
2343.73	0.0004031
2353.37	0.0004528
2363.02	0.0003285
2372.66	0.0002754
2382.31	0.0003328
2391.95	0.0003081
2401.6	0.0003309
2411.24	0.0003238
2420.89	0.0005149
2430.53	0.0006183
2440.18	0.0004727
2449.82	0.0003484
2459.47	0.0003604
2469.11	0.0003047
2478.75	0.0002699
2488.4	0.0002545
2498.04	0.000289
2507.69	0.0002883
2517.33	0.0003256
2526.98	0.0003005
2536.62	0.0002351
2546.27	0.0002356
2555.91	0.0002389
2565.56	0.0002614
2575.2	0.0002631
2584.85	0.0001987
2594.49	0.0002725
2604.14	0.0003382
2613.78	0.0002353
2623.43	0.0002466
2633.07	0.0002211
2642.72	0.0002205
2652.36	0.0002401
2662.01	0.000219
2671.65	0.00014327
2681.29	0.000261
2690.94	0.0002387
2700.58	0.0001942
2710.23	0.000268
2719.87	0.0002397
2729.52	0.000259
2739.16	0.0001894
2748.81	0.0002295
2758.45	0.0002551
2768.1	0.0003361
2777.74	0.0002288
2787.39	0.0003089
2797.03	0.0002659
2806.68	0.0002637
2816.32	0.0002195
2825.97	0.0003378
2835.61	0.0003204
2845.26	0.0003128
2854.9	0.0002966
2864.55	0.0002774
2874.19	0.0002992
2883.84	0.0002782
2893.48	0.0004366
2903.12	0.0003344
2912.77	0.0003465
2922.41	0.0004416
2932.06	0.0003716
2941.7	0.0003667
2951.35	0.0003186
2960.99	0.0003525
2970.64	0.0003965
2980.28	0.0005305
2989.93	0.000827
2999.57	0.0015363
3009.22	0.0026463
3018.86	0.0043863
3028.51	0.0073263
3038.15	0.0079763
3047.8	0.0049963
3057.44	0.0095763
3067.09	0.0159563
3076.73	0.0082463
3086.38	0.0063463
3096.02	0.0048263
3105.67	0.0025463
3115.31	0.0013163
3124.95	0.0008354
3134.6	0.0005067
3144.24	0.0006007
3153.89	0.0006731
3163.53	0.0005065
3173.18	0.0003023
3182.82	0.0004446
3192.47	0.0002533
3202.11	0.0002047
3211.76	0.00014672
3221.4	0.00013886
3231.05	0.0002628
3240.69	7.977e-05
3250.34	0.00014863
3259.98	0.0002248
3269.63	0.00012856
3279.27	0.0001922
3288.92	0.00017233
3298.56	6.23e-05
3308.21	0.0002744
3317.85	6.16e-05
3327.49	7.692e-05
3337.14	0.0002707
3346.78	0.0003067
3356.43	0.000255
3366.07	0.0002803
3375.72	0.0002099
3385.36	0.00010569
3395.01	0.0002878
3404.65	0.0001883
3414.3	0.00014039
3423.94	0.0002158
3433.59	0.0002853
3443.23	0.00013637
3452.88	0.00013785
3462.52	0.0003339
3472.17	0.0002538
3481.81	0.0001329
3491.46	8.469e-05
3501.1	9.3863e-05
3510.75	0.0002688
3520.39	7.845e-05
3530.04	0.00012908
3539.68	0.00011822
3549.32	0.00017844
3558.97	0.00021
3568.61	7.08e-05
3578.26	0.000229
3587.9	0.00016276
3597.55	0.0002675
3607.19	0.0003494
3616.84	0.0002505
3626.48	0.0007772
3636.13	0.0020663
3645.77	0.0104263
3655.42	0.0088163
3665.06	0.000787
3674.71	0.0004235
3684.35	0.0003373
3694	0.000356
3703.64	0.0003558
3713.29	0.0003215
3722.93	0.0002443
3732.58	0.00015612
3742.22	0.0003782
3751.86	0.00018409
3761.51	0.0002128
3771.15	0.00010463
3780.8	7.914e-05
3790.44	0.00016825
3800.09	7.49e-05
3809.73	0.0002221
3819.38	0.0001508
3829.02	0.000276
3838.67	0.0002898
3848.31	0.0002576
3857.96	0.0001726
3867.6	0.0001966
3877.25	9.87e-05
3886.89	0.000272
3896.54	0.00014213
3906.18	0.0002784
3915.83	0.0002503
3925.47	8.7529e-05
3935.12	0.0002311
3944.76	0.00016276
3954.41	0.0002518
3964.05	0.0002662
3973.69	0.0001946
3983.34	0.000199
3992.98	0.00016218
