Infrared Spectrum: 6,11-DIHYDRO-6,11-DIOXO-5a,12-DIAZABENZO[b] CYCLOHEPTANO [a]-INDENE
Formula: C16 H14 N2 O2
CAS: 97999-91-2
State: SOLID (KBr PRESSING)
Melting point: 218 C
Class: COBLENTZ
Instrument: Not specified, most likely a prism, grating, or hybrid spectrometer.
Sampling: TRANSMISSION
Resolution: 4
Origin: EASTMAN KODAK COMPANY, RESEARCH LABORATORIES, ROCHESTER, N.Y.
MICROMETERS	TRANSMITTANCE
2.027	0.652
2.06692	0.655
2.10685	0.659
2.14677	0.659
2.18669	0.662
2.22661	0.663
2.26654	0.663
2.30646	0.667
2.34638	0.67
2.38631	0.673
2.42623	0.677
2.46615	0.68
2.50608	0.683
2.546	0.685
2.58592	0.686
2.62584	0.69
2.66577	0.695
2.70569	0.7
2.74561	0.7
2.78554	0.683
2.82546	0.603
2.86538	0.542
2.90531	0.511
2.94523	0.501
2.98515	0.521
3.02507	0.58
3.065	0.619
3.10492	0.644
3.14484	0.67
3.18477	0.69
3.22469	0.695
3.26461	0.691
3.30454	0.69
3.34446	0.691
3.38438	0.642
3.4243	0.352
3.46423	0.621
3.50415	0.511
3.54407	0.709
3.584	0.726
3.62392	0.75
3.66384	0.755
3.70377	0.757
3.74369	0.759
3.78361	0.762
3.82353	0.768
3.86346	0.773
3.90338	0.783
3.9433	0.79
3.98323	0.793
4.02315	0.8
4.06307	0.801
4.103	0.811
4.14292	0.811
4.18284	0.813
4.22276	0.813
4.26269	0.813
4.30261	0.814
4.34253	0.821
4.38246	0.826
4.42238	0.832
4.4623	0.834
4.50223	0.837
4.54215	0.839
4.58207	0.84
4.62199	0.84
4.66192	0.842
4.70184	0.842
4.74176	0.842
4.78169	0.844
4.82161	0.845
4.86153	0.847
4.90146	0.847
4.94138	0.847
4.9813	0.847
5.02122	0.847
5.06115	0.849
5.10107	0.85
5.14099	0.852
5.18092	0.859
5.22084	0.862
5.26076	0.865
5.30069	0.867
5.34061	0.868
5.38053	0.872
5.42045	0.872
5.46038	0.878
5.5003	0.881
5.54022	0.881
5.58015	0.881
5.62007	0.881
5.65999	0.881
5.69991	0.881
5.73984	0.872
5.77976	0.85
5.81968	0.832
5.85961	0.822
5.89953	0.7
5.93945	0.209
5.97938	0.08
6.0193	0.118
6.05922	0.6
6.09914	0.631
6.13907	0.662
6.17899	0.695
6.21891	0.631
6.25884	0.293
6.29876	0.38
6.33868	0.64
6.37861	0.762
6.41853	0.772
6.45845	0.778
6.49837	0.572
6.5383	0.268
6.57822	0.24
6.61814	0.59
6.65807	0.677
6.69799	0.6
6.73791	0.226
6.77784	0.472
6.81776	0.68
6.85768	0.511
6.8976	0.49
6.93753	0.47
6.97745	0.613
7.01737	0.681
7.0573	0.744
7.09722	0.59
7.13714	0.749
7.17707	0.798
7.21699	0.819
7.25691	0.742
7.29683	0.752
7.33676	0.778
7.37668	0.69
7.4166	0.76
7.45653	0.677
7.49645	0.772
7.53637	0.77
7.5763	0.452
7.61622	0.581
7.65614	0.709
7.69606	0.6
7.73599	0.401
7.77591	0.713
7.81583	0.508
7.85576	0.619
7.89568	0.7
7.9356	0.719
7.97553	0.298
8.01545	0.409
8.05537	0.709
8.09529	0.709
8.13522	0.555
8.17514	0.539
8.21506	0.201
8.25499	0.091
8.29491	0.321
8.33483	0.568
8.37476	0.639
8.41468	0.681
8.4546	0.708
8.49452	0.66
8.53445	0.56
8.57437	0.442
8.61429	0.485
8.65422	0.662
8.69414	0.731
8.73406	0.752
8.77399	0.768
8.81391	0.79
8.85383	0.803
8.89375	0.813
8.93368	0.821
8.9736	0.829
9.01352	0.836
9.05345	0.84
9.09337	0.837
9.13329	0.803
9.17322	0.777
9.21314	0.804
9.25306	0.793
9.29298	0.763
9.33291	0.824
9.37283	0.842
9.41275	0.849
9.45268	0.852
9.4926	0.854
9.53252	0.781
9.57244	0.493
9.61237	0.778
9.65229	0.831
9.69221	0.822
9.73214	0.821
9.77206	0.842
9.81198	0.854
9.85191	0.87
9.89183	0.888
9.93175	0.883
9.97167	0.863
10.0116	0.603
10.0515	0.388
10.0914	0.673
10.1314	0.77
10.1713	0.811
10.2112	0.827
10.2511	0.837
10.2911	0.803
10.331	0.66
10.3709	0.391
10.4108	0.35
10.4508	0.245
10.4907	0.403
10.5306	0.693
10.5705	0.772
10.6104	0.801
10.6504	0.819
10.6903	0.829
10.7302	0.839
10.7701	0.847
10.8101	0.86
10.85	0.87
10.8899	0.873
10.9298	0.875
10.9697	0.86
11.0097	0.827
11.0496	0.859
11.0895	0.859
11.1294	0.859
11.1694	0.865
11.2093	0.868
11.2492	0.822
11.2891	0.757
11.3291	0.834
11.369	0.868
11.4089	0.873
11.4488	0.872
11.4887	0.862
11.5287	0.74
11.5686	0.732
11.6085	0.826
11.6484	0.844
11.6884	0.862
11.7283	0.867
11.7682	0.868
11.8081	0.852
11.8481	0.783
11.888	0.785
11.9279	0.824
11.9678	0.84
12.0077	0.852
12.0477	0.859
12.0876	0.86
12.1275	0.862
12.1674	0.86
12.2074	0.832
12.2473	0.768
12.2872	0.78
12.3271	0.801
12.3671	0.829
12.407	0.831
12.4469	0.824
12.4868	0.736
12.5267	0.532
12.5667	0.659
12.6066	0.75
12.6465	0.78
12.6864	0.804
12.7264	0.819
12.7663	0.826
12.8062	0.827
12.8461	0.829
12.8861	0.829
12.926	0.831
12.9659	0.829
13.0058	0.827
13.0457	0.822
13.0857	0.819
13.1256	0.809
13.1655	0.803
13.2054	0.798
13.2454	0.79
13.2853	0.77
13.3252	0.749
13.3651	0.721
13.4051	0.718
13.445	0.672
13.4849	0.575
13.5248	0.701
13.5647	0.731
13.6047	0.731
13.6446	0.734
13.6845	0.731
13.7244	0.701
13.7644	0.659
13.8043	0.55
13.8442	0.331
13.8841	0.218
13.9241	0.332
13.964	0.468
14.0039	0.496
14.0438	0.514
14.0837	0.426
14.1237	0.237
14.1636	0.319
14.2035	0.442
14.2434	0.531
14.2834	0.57
14.3233	0.583
14.3632	0.601
14.4031	0.619
14.443	0.631
14.483	0.631
14.5229	0.634
14.5628	0.636
14.6027	0.619
14.6427	0.595
14.6826	0.595
14.7225	0.603
14.7624	0.611
14.8024	0.618
14.8423	0.621
14.8822	0.611
14.9221	0.55
14.962	0.595
15.002	0.701
15.0419	0.629
15.0818	0.608
15.1217	0.603
15.1617	0.6
15.2016	0.598
15.2415	0.598
15.2814	0.596
15.3214	0.593
15.3613	0.59
15.4012	0.583
15.4411	0.581
15.481	0.581
15.521	0.58
15.5609	0.573
15.6008	0.568
15.6407	0.559
15.6807	0.55
15.7206	0.55
15.7605	0.55
15.8004	0.549
15.8404	0.55
15.8803	0.55
15.9202	0.55
15.9601	0.55
16	0.552
