Infrared Spectrum: Benzenesulfonyl chloride
Formula: C 6 H 5 Cl O 2 S
CAS: 98-09-9
State: gas
Instrument: HP-GC/MS/IRD
Origin: NIST Mass Spectrometry Data Center
1/CM	ABSORBANCE
550	0.0656601
562	0.106353
574	0.206585
586	0.287941
598	0.0967782
610	0.0270579
622	0.0105747
634	0.0052722
646	0.0071205
658	0.0114231
670	0.0270579
682	0.0445107
694	0.0287244
706	0.0473892
718	0.0748107
730	0.0248763
742	0.0240582
754	0.0256035
766	0.0088476
778	0.0047571
790	0.0030603
802	0.0011514
814	0.0008181
826	0.0008181
838	0.0014544
850	0.0010302
862	0.000303
874	0.0001818
886	0.0001212
898	0.0001212
910	9.09e-05
922	0.000303
934	0.0004242
946	0.0006666
958	0.0007272
970	0.0004545
982	0.0013029
994	0.0026664
1006	0.0026664
1018	0.0043026
1030	0.0045753
1042	0.0020604
1054	0.0037572
1066	0.0077265
1078	0.0206949
1090	0.0224826
1102	0.0080598
1114	0.0035754
1126	0.003333
1138	0.0065448
1150	0.0199071
1162	0.0452379
1174	0.0741744
1186	0.156833
1198	0.153682
1210	0.0361782
1222	0.0104838
1234	0.0049389
1246	0.0027876
1258	0.0036057
1270	0.0056964
1282	0.006666
1294	0.0053631
1306	0.0045147
1318	0.0058176
1330	0.0086052
1342	0.0074841
1354	0.0071811
1366	0.0152106
1378	0.0408141
1390	0.117322
1402	0.157196
1414	0.0570246
1426	0.0119685
1438	0.0173316
1450	0.0266943
1462	0.0141198
1474	0.0070296
1486	0.0061812
1498	0.002121
1510	0.0013332
1522	0.0009696
1534	0.0005454
1546	0.0004545
1558	0.0006666
1570	0.001515
1582	0.0027876
1594	0.0019392
1606	0.0008787
1618	0.0004848
1630	0.000303
1642	0.0003333
1654	0.0005757
1666	0.0015756
1678	0.0019392
1690	0.0007575
1702	0.0003333
1714	0.0003636
1726	0.0004545
1738	0.0006666
1750	0.0010605
1762	0.0013938
1774	0.0013332
1786	0.0017877
1798	0.0036057
1810	0.0028482
1822	0.000909
1834	0.0005151
1846	0.000303
1858	0.0004242
1870	0.0007575
1882	0.0016665
1894	0.0023331
1906	0.0023028
1918	0.0015756
1930	0.0006666
1942	0.000909
1954	0.0018483
1966	0.0020301
1978	0.0017271
1990	0.0007575
2002	0.0002424
2014	9.09e-05
2026	6.06e-05
2038	6.06e-05
2050	9.09e-05
2062	6.06e-05
2074	0.0001212
2086	0.0001818
2098	0.0002424
2110	0.0002727
2122	9.09e-05
2134	6.06e-05
2146	0.0002121
2158	0.0005151
2170	0.0005454
2182	0.0002424
2194	0.0002121
2206	0.0001515
2218	0.0001515
2230	0.0002121
2242	0.0003636
2254	0.0005757
2266	0.0008787
2278	0.0010605
2290	0.000606
2302	0.0004242
2314	0.0005151
2326	0.0008787
2338	0.0006969
2350	0.0005757
2362	0.0005151
2374	0.0005151
2386	0.0003939
2398	0.0002727
2410	0.0001818
2422	9.09e-05
2434	6.06e-05
2446	9.09e-05
2458	0.0001515
2470	0.0002424
2482	0.000303
2494	0.0002727
2506	0.0002424
2518	0.0002121
2530	0.0002727
2542	0.0005151
2554	0.0008787
2566	0.0013029
2578	0.001515
2590	0.0013029
2602	0.0007272
2614	0.0004242
2626	0.000303
2638	0.000303
2650	0.0005151
2662	0.0008484
2674	0.0006666
2686	0.0002121
2698	9.09e-05
2710	6.06e-05
2722	9.09e-05
2734	0.0001818
2746	0.0001818
2758	0.0002727
2770	0.000303
2782	0.0003939
2794	0.0002424
2806	0.0001212
2818	0
2830	3.03e-05
2842	6.06e-05
2854	0.0001515
2866	0.0001818
2878	0.0002727
2890	0.0003939
2902	0.0002727
2914	0.0001818
2926	0.0002424
2938	0.0002727
2950	0.0002424
2962	0.0002424
2974	0.000303
2986	0.000303
2998	0.0006363
3010	0.0012423
3022	0.0015756
3034	0.0017877
3046	0.0022422
3058	0.0056358
3070	0.0158166
3082	0.0197859
3094	0.0069993
3106	0.0024543
3118	0.0009393
3130	0.0006666
3142	0.0005757
3154	0.0006969
3166	0.0008787
3178	0.0006969
3190	0.0004242
3202	0.0002727
3214	0.0001515
3226	0.0001515
3238	0.0001515
3250	0.0002121
3262	0.0001515
3274	0.0002121
3286	0.0001212
3298	0.0001515
3310	0.0001212
3322	0.0001515
3334	0.0001212
3346	0.0001515
3358	9.09e-05
3370	0.0001212
3382	0.0001212
3394	0.0001818
3406	0.0001212
3418	0.0001515
3430	0.0001212
3442	0.0001818
3454	0.0001515
3466	0.0002121
3478	0.0002121
3490	0.0001515
3502	0.0001515
3514	0.0002121
3526	0.0001818
3538	0.0001515
3550	0.0002424
3562	0.0002121
3574	0.0001818
3586	0.0002121
3598	0.0002121
3610	0.0002424
3622	0.0002727
3634	0.0003333
3646	0.0004242
3658	0.0003939
3670	0.0003939
3682	0.0002727
3694	0.0004848
3706	0.0005454
3718	0.0003636
3730	0.0002424
3742	0.0002727
3754	0.0002121
3766	0.0002424
3778	0.0003939
3790	0.0004545
3802	0.000303
3814	0.0002121
3826	0.0002121
3838	0.0001818
