Infrared Spectrum: BENZENEARSONIE ACID
Formula: C6 H7 As O3
CAS: 98-05-5
State: SOLID (SPLIT MULL)
Class: COBLENTZ III
Instrument: DOW KBr FOREPRISM-GRATING
Instrument parameters: BLAZED AT 3.5, 12.0, 20.0 MICRON AND CHANGED AT 5.0, 7.5, 14.9 MICRON
Sampling: TRANSMISSION
Resolution: 2
Origin: DOW CHEMICAL COMPANY
1/CM	TRANSMITTANCE
438	0.7801
447	0.7567
456	0.6706
465	0.4207
474	0.8234
483	0.856
492	0.8647
501	0.8723
510	0.8763
519	0.8825
528	0.8901
537	0.8984
546	0.9046
555	0.9065
564	0.9091
573	0.9121
582	0.9174
591	0.9193
600	0.9194
609	0.9071
618	0.9158
627	0.9031
636	0.8998
645	0.8974
654	0.8898
663	0.8593
672	0.7925
681	0.8187
690	0.3874
699	0.7947
708	0.7862
717	0.7321
726	0.7106
735	0.6786
744	0.3895
753	0.5787
762	0.4859
771	0.1041
780	0.1183
789	0.1516
798	0.2111
807	0.4998
816	0.5929
825	0.62
834	0.6126
843	0.5954
852	0.526
861	0.3888
870	0.2764
879	0.0887
888	0.0698
897	0.1959
906	0.4523
915	0.6496
924	0.7396
933	0.7974
942	0.8328
951	0.8512
960	0.8631
969	0.8656
978	0.8747
987	0.8778
996	0.7544
1005	0.8743
1014	0.8817
1023	0.823
1032	0.877
1041	0.8717
1050	0.8647
1059	0.8504
1068	0.8368
1077	0.8072
1086	0.588
1095	0.7226
1104	0.8026
1113	0.7969
1122	0.7706
1131	0.7442
1140	0.7065
1149	0.6618
1158	0.6195
1167	0.6152
1176	0.5368
1185	0.5265
1194	0.6018
1203	0.6152
1212	0.6391
1221	0.6738
1230	0.698
1239	0.7189
1248	0.7398
1257	0.7615
1266	0.7795
1275	0.7944
1284	0.8007
1293	0.8045
1302	0.8108
1311	0.7948
1320	0.7851
1329	0.7312
1338	0.7088
1347	0.7221
1356	0.7641
1365	0.7758
1374	0.7714
1383	0.7819
1392	0.7768
1401	0.7624
1410	0.7692
1419	0.7608
1428	0.7421
1437	0.6389
1446	0.3768
1455	0.7518
1464	0.7343
1473	0.7275
1482	0.6912
1491	0.7361
1500	0.7324
1509	0.7286
1518	0.724
1527	0.7217
1536	0.7128
1545	0.7047
1554	0.6986
1563	0.6958
1572	0.6922
1581	0.6794
1590	0.6931
1599	0.6868
1608	0.6828
1617	0.6828
1626	0.6801
1635	0.679
1644	0.6781
1653	0.6821
1662	0.6906
1671	0.6911
1680	0.6793
1689	0.6847
1698	0.7051
1707	0.7087
1716	0.7033
1725	0.7068
1734	0.7111
1743	0.7121
1752	0.7153
1761	0.7165
1770	0.7144
1779	0.7153
1788	0.711
1797	0.7146
1806	0.718
1815	0.7188
1824	0.7146
1833	0.7111
1842	0.7205
1851	0.7211
1860	0.7203
1869	0.7218
1878	0.7203
1887	0.7185
1896	0.7178
1905	0.7144
1914	0.7022
1923	0.7091
1932	0.7088
1941	0.7053
1950	0.7078
1959	0.7151
1968	0.7011
1977	0.6933
1986	0.6971
1995	0.7056
2004	0.695
2013	0.6981
2022	0.6945
2031	0.6886
2040	0.6808
2049	0.6756
2058	0.6694
2067	0.6601
2076	0.6511
2085	0.6419
2094	0.6328
2103	0.6227
2112	0.6124
2121	0.6021
2130	0.5919
2139	0.5808
2148	0.5692
2157	0.5544
2166	0.535
2175	0.5178
2184	0.5029
2193	0.4869
2202	0.472
2211	0.4587
2220	0.4465
2229	0.4333
2238	0.423
2247	0.4117
2256	0.4003
2265	0.3898
2274	0.3826
2283	0.378
2292	0.3754
2301	0.3757
2310	0.3818
2319	0.4064
2328	0.4477
2337	0.4595
2346	0.4616
2355	0.4831
2364	0.4852
2373	0.4858
2382	0.4868
2391	0.492
2400	0.5029
2409	0.5121
2418	0.5244
2427	0.5371
2436	0.5497
2445	0.556
2454	0.5589
2463	0.5586
2472	0.5565
2481	0.5536
2490	0.5469
2499	0.5393
2508	0.531
2517	0.5224
2526	0.5138
2535	0.5053
2544	0.4959
2553	0.4855
2562	0.4716
2571	0.4597
2580	0.4485
2589	0.4405
2598	0.4327
2607	0.4262
2616	0.4198
2625	0.4141
2634	0.4089
2643	0.4036
2652	0.3994
2661	0.3953
2670	0.3912
2679	0.3873
2688	0.3839
2697	0.3806
2706	0.3773
2715	0.3746
2724	0.372
2733	0.3695
2742	0.3671
2751	0.3648
2760	0.3626
2769	0.3616
2778	0.3608
2787	0.3599
2796	0.3591
2805	0.3584
2814	0.36
2823	0.362
2832	0.3644
2841	0.3632
2850	0.3612
2859	0.3653
2868	0.3709
2877	0.3766
2886	0.3812
2895	0.382
2904	0.3859
2913	0.3846
2922	0.384
2931	0.3895
2940	0.403
2949	0.4135
2958	0.4244
2967	0.4379
2976	0.4512
2985	0.4619
2994	0.4718
3003	0.4816
3012	0.4916
3021	0.4952
3030	0.4953
3039	0.5093
3048	0.5048
3057	0.4774
3066	0.4471
3075	0.535
3084	0.5437
3093	0.5672
3102	0.5798
3111	0.591
3120	0.6033
3129	0.6131
3138	0.621
3147	0.6291
3156	0.6373
3165	0.6441
3174	0.6498
3183	0.6568
3192	0.6654
3201	0.6728
3210	0.6795
3219	0.6843
3228	0.6885
3237	0.6946
3246	0.7011
3255	0.7093
3264	0.7161
3273	0.7221
3282	0.7281
3291	0.7314
3300	0.7353
3309	0.7376
3318	0.7376
3327	0.7358
3336	0.7354
3345	0.7403
3354	0.7446
3363	0.7475
3372	0.7488
3381	0.7468
3390	0.7446
3399	0.7434
3408	0.7435
3417	0.7444
3426	0.7455
3435	0.7465
3444	0.7478
3453	0.7493
3462	0.7508
3471	0.7521
3480	0.7533
3489	0.7545
3498	0.7551
3507	0.7558
3516	0.7571
3525	0.7581
3534	0.7587
3543	0.7591
3552	0.759
3561	0.7578
3570	0.7549
3579	0.7528
3588	0.7524
3597	0.751
3606	0.7532
3615	0.7557
3624	0.7554
3633	0.7568
3642	0.7571
3651	0.7564
3660	0.7581
3669	0.7615
3678	0.7612
3687	0.7595
3696	0.7568
3705	0.7518
3714	0.7525
3723	0.7558
3732	0.7571
3741	0.7578
3750	0.7558
3759	0.7482
3768	0.7531
3777	0.7528
3786	0.7514
3795	0.7501
