Infrared Spectrum: Furfurylalcohol
Formula: C 5 H 6 O 2
CAS: 98-00-0
State: gas
Instrument: HP-GC/MS/IRD
Origin: NIST Mass Spectrometry Data Center
1/CM	ABSORBANCE
550	0.0004208
562	0.0001096
574	0.0003888
586	0.0004384
598	0.0008408
610	0.000628
622	0.0005064
634	0.0003256
646	0.0002512
658	8.32e-05
670	0.0001472
682	0.0001672
694	0.000524
706	0.001524
718	0.0034008
730	0.005616
742	0.0053872
754	0.0032008
766	0.0015472
778	0.0007256
790	0.0009384
802	0.0014448
814	0.00104
826	0.0006048
838	0.0003048
850	0.0001664
862	0.0002976
874	0.0007136
886	0.0011328
898	0.001744
910	0.0017672
922	0.0019296
934	0.001608
946	0.001312
958	0.0012888
970	0.0015888
982	0.0025064
994	0.0045416
1006	0.0070576
1018	0.008
1030	0.0062576
1042	0.0037792
1054	0.002324
1066	0.0016584
1078	0.0012208
1090	0.0008176
1102	0.0004736
1114	0.000404
1126	0.0007856
1138	0.0023136
1150	0.0030312
1162	0.002752
1174	0.0015424
1186	0.0013128
1198	0.0014128
1210	0.0016296
1222	0.0016248
1234	0.0013376
1246	0.0010048
1258	0.0009112
1270	0.0007808
1282	0.0007016
1294	0.0006424
1306	0.0006184
1318	0.000664
1330	0.0006808
1342	0.0008896
1354	0.001432
1366	0.0022696
1378	0.0026256
1390	0.00246
1402	0.0018184
1414	0.0011976
1426	0.000724
1438	0.0005448
1450	0.0006128
1462	0.0007056
1474	0.00074
1486	0.000776
1498	0.0009304
1510	0.0009464
1522	0.0007776
1534	0.0005824
1546	0.00048
1558	0.0004656
1570	0.0004488
1582	0.000528
1594	0.0005824
1606	0.0004944
1618	0.0003632
1630	0.0001728
1642	0.0001568
1654	0.0002216
1666	0.000172
1678	0.0001536
1690	0.0001536
1702	0.0003384
1714	0.0003952
1726	0.000292
1738	0.0001128
1750	4.32e-05
1762	2.96e-05
1774	2.48e-05
1786	4.8e-06
1798	4.4e-05
1810	6.96e-05
1822	7.44e-05
1834	4.4e-05
1846	1.52e-05
1858	1.6e-05
1870	5.6e-06
1882	8e-06
1894	2.08e-05
1906	1.36e-05
1918	2.64e-05
1930	1.84e-05
1942	2e-05
1954	3.04e-05
1966	6.32e-05
1978	3.6e-05
1990	8.08e-05
2002	9.04e-05
2014	0.000124
2026	0.0001264
2038	0.0001192
2050	8.32e-05
2062	9.28e-05
2074	8.8e-05
2086	0.0001296
2098	0.00012
2110	0.0001032
2122	5.76e-05
2134	6e-05
2146	5.2e-05
2158	5.52e-05
2170	7.28e-05
2182	5.68e-05
2194	6.64e-05
2206	7.28e-05
2218	7.12e-05
2230	9.84e-05
2242	0.0001064
2254	6.64e-05
2266	8.08e-05
2278	7.2e-05
2290	9.44e-05
2302	7.2e-05
2314	9.44e-05
2326	7.84e-05
2338	0.0001016
2350	9.68e-05
2362	0.0001168
2374	0.0001296
2386	8.88e-05
2398	0.0001016
2410	0.0001048
2422	0.0001208
2434	9.92e-05
2446	0.0001184
2458	8.16e-05
2470	7.6e-05
2482	8.32e-05
2494	7.2e-05
2506	7.92e-05
2518	7.36e-05
2530	6.4e-05
2542	5.36e-05
2554	8.16e-05
2566	7.12e-05
2578	8.8e-05
2590	5.28e-05
2602	8.24e-05
2614	8.72e-05
2626	8.8e-05
2638	0.0001024
2650	0.000144
2662	0.0001464
2674	0.000116
2686	9.76e-05
2698	0.0001072
2710	0.0001208
2722	0.0001288
2734	0.000108
2746	0.0001248
2758	0.0001304
2770	0.0001552
2782	0.0001616
2794	0.0001928
2806	0.0002304
2818	0.0002928
2830	0.0004136
2842	0.0005456
2854	0.0007808
2866	0.0010792
2878	0.0014248
2890	0.0014664
2902	0.0013344
2914	0.0012744
2926	0.0014552
2938	0.0017384
2950	0.0016208
2962	0.0012952
2974	0.000944
2986	0.0006264
2998	0.0003944
3010	0.0002232
3022	0.0001464
3034	0.0001016
3046	8.4e-05
3058	8.4e-05
3070	6.24e-05
3082	6.24e-05
3094	0.0001104
3106	0.0001656
3118	0.000324
3130	0.0003368
3142	0.0002312
3154	0.0001944
3166	0.0001736
3178	0.0001048
3190	7.36e-05
3202	8e-05
3214	9.2e-05
3226	7.04e-05
3238	4.88e-05
3250	5.2e-05
3262	7.04e-05
3274	9.28e-05
3286	0.00012
3298	9.04e-05
3310	0.0001208
3322	8.08e-05
3334	0.0001136
3346	5.2e-05
3358	0.0001208
3370	0.0001336
3382	0.0001312
3394	0.0001424
3406	0.000112
3418	8.24e-05
3430	0.0002
3442	0.0001824
3454	0.0001928
3466	0.0001552
3478	0.0001608
3490	0.0001768
3502	0.0001864
3514	0.0001424
3526	0.0001896
3538	0.000176
3550	0.0001616
3562	0.00024
3574	0.0001832
3586	0.0002864
3598	0.0002848
3610	0.0003408
3622	0.0004592
3634	0.0007776
3646	0.0011784
3658	0.0013568
3670	0.0011176
3682	0.0006816
3694	0.0004728
3706	0.0003224
3718	0.000268
3730	0.0002472
3742	0.0001896
3754	0.0001808
3766	0.0002216
3778	0.0001704
3790	0.0002048
3802	0.0001952
3814	0.0001984
3826	0.0001744
3838	0.0002088
