Infrared Spectrum: BENZENESULFONAMIDE
Formula: C6 H7 N O2 S
CAS: 98-10-2
State: SOLID (SPLIT MULL)
Class: COBLENTZ III
Instrument: DOW KBr FOREPRISM-GRATING
Instrument parameters: BLAZED AT 3.5, 12.0, 20.0 MICRON AND CHANGED AT 5.0, 7.5, 14.9 MICRON
Sampling: TRANSMISSION
Resolution: 2
Origin: DOW CHEMICAL COMPANY
1/CM	TRANSMITTANCE
442	0.89
451	0.8883
460	0.8896
469	0.8927
478	0.8867
487	0.876
496	0.8605
505	0.8496
514	0.8382
523	0.7826
532	0.3774
541	0.4201
550	0.8746
559	0.9214
568	0.9134
577	0.8635
586	0.6828
595	0.7764
604	0.8915
613	0.8891
622	0.8751
631	0.8575
640	0.827
649	0.7978
658	0.7441
667	0.6804
676	0.5975
685	0.2882
694	0.5781
703	0.6468
712	0.8205
721	0.6108
730	0.4604
739	0.3666
748	0.2688
757	0.0979
766	0.3084
775	0.39
784	0.4632
793	0.5735
802	0.6384
811	0.7105
820	0.7664
829	0.8161
838	0.8571
847	0.8696
856	0.8875
865	0.8943
874	0.8786
883	0.8388
892	0.7505
901	0.6401
910	0.7384
919	0.8787
928	0.8836
937	0.924
946	0.9248
955	0.9208
964	0.9188
973	0.9144
982	0.9091
991	0.7875
1000	0.8908
1009	0.8998
1018	0.8462
1027	0.8971
1036	0.8921
1045	0.8703
1054	0.8292
1063	0.7061
1072	0.7284
1081	0.5324
1090	0.3066
1099	0.7528
1108	0.8144
1117	0.8068
1126	0.749
1135	0.6445
1144	0.3494
1153	0.0469
1162	0.0874
1171	0.3945
1180	0.3597
1189	0.8849
1198	0.9159
1207	0.9202
1216	0.918
1225	0.9111
1234	0.8902
1243	0.8675
1252	0.8478
1261	0.8225
1270	0.7701
1279	0.666
1288	0.579
1297	0.6
1306	0.4367
1315	0.3066
1324	0.2516
1333	0.0462
1342	0.3195
1351	0.6394
1360	0.7121
1369	0.7484
1378	0.7672
1387	0.7776
1396	0.7696
1405	0.7657
1414	0.7733
1423	0.7658
1432	0.7458
1441	0.6525
1450	0.6432
1459	0.781
1468	0.7644
1477	0.7187
1486	0.7792
1495	0.7845
1504	0.7735
1513	0.7658
1522	0.7457
1531	0.7101
1540	0.6561
1549	0.621
1558	0.6349
1567	0.6576
1576	0.6783
1585	0.7185
1594	0.7462
1603	0.7578
1612	0.7671
1621	0.7781
1630	0.7708
1639	0.7664
1648	0.7756
1657	0.7851
1666	0.7961
1675	0.8008
1684	0.7986
1693	0.8072
1702	0.8112
1711	0.8108
1720	0.8125
1729	0.8153
1738	0.8151
1747	0.8139
1756	0.8135
1765	0.8099
1774	0.8053
1783	0.8068
1792	0.8105
1801	0.8112
1810	0.8074
1819	0.8053
1828	0.8076
1837	0.811
1846	0.8097
1855	0.8093
1864	0.8086
1873	0.8087
1882	0.8091
1891	0.8084
1900	0.7997
1909	0.7865
1918	0.8039
1927	0.8058
1936	0.8046
1945	0.8098
1954	0.8097
1963	0.8091
1972	0.7968
1981	0.7854
1990	0.8318
1999	0.8551
2008	0.8557
2017	0.8556
2026	0.8523
2035	0.8487
2044	0.8493
2053	0.8503
2062	0.8405
2071	0.8315
2080	0.8277
2089	0.8259
2098	0.8255
2107	0.8248
2116	0.8227
2125	0.8195
2134	0.8162
2143	0.8128
2152	0.8094
2161	0.8051
2170	0.8011
2179	0.7975
2188	0.7954
2197	0.7942
2206	0.7905
2215	0.7854
2224	0.7806
2233	0.7762
2242	0.7731
2251	0.7701
2260	0.7683
2269	0.7671
2278	0.7662
2287	0.7657
2296	0.7651
2305	0.7647
2314	0.7645
2323	0.7642
2332	0.764
2341	0.7636
2350	0.7618
2359	0.7601
2368	0.7581
2377	0.7556
2386	0.7531
2395	0.7518
2404	0.7511
2413	0.7506
2422	0.7507
2431	0.7507
2440	0.749
2449	0.7465
2458	0.7439
2467	0.7424
2476	0.7414
2485	0.7425
2494	0.7447
2503	0.7451
2512	0.7451
2521	0.7446
2530	0.7435
2539	0.7408
2548	0.7382
2557	0.7357
2566	0.7333
2575	0.731
2584	0.7294
2593	0.7278
2602	0.7261
2611	0.7244
2620	0.723
2629	0.7222
2638	0.7217
2647	0.7208
2656	0.7201
2665	0.7193
2674	0.7185
2683	0.7181
2692	0.7178
2701	0.7164
2710	0.7148
2719	0.7132
2728	0.7115
2737	0.7096
2746	0.7076
2755	0.7057
2764	0.7044
2773	0.7033
2782	0.7021
2791	0.7004
2800	0.6987
2809	0.6958
2818	0.6931
2827	0.6899
2836	0.6853
2845	0.6806
2854	0.6774
2863	0.675
2872	0.6728
2881	0.6703
2890	0.6678
2899	0.6655
2908	0.6625
2917	0.6585
2926	0.6551
2935	0.6549
2944	0.6541
2953	0.6531
2962	0.6511
2971	0.6484
2980	0.6454
2989	0.6418
2998	0.638
3007	0.634
3016	0.6297
3025	0.6247
3034	0.6194
3043	0.6126
3052	0.6059
3061	0.5983
3070	0.5906
3079	0.5858
3088	0.5782
3097	0.5693
3106	0.5618
3115	0.554
3124	0.5462
3133	0.5384
3142	0.5303
3151	0.522
3160	0.5116
3169	0.4993
3178	0.4868
3187	0.4743
3196	0.4614
3205	0.4368
3214	0.4084
3223	0.37
3232	0.3274
3241	0.2641
3250	0.2041
3259	0.1685
3268	0.1606
3277	0.2297
3286	0.3276
3295	0.4152
3304	0.4365
3313	0.4339
3322	0.4168
3331	0.3672
3340	0.2995
3349	0.2318
3358	0.1795
3367	0.179
3376	0.2871
3385	0.4144
3394	0.5431
3403	0.5829
3412	0.5914
3421	0.596
3430	0.5991
3439	0.6004
3448	0.6016
3457	0.6024
3466	0.6032
3475	0.6033
3484	0.6032
3493	0.6032
3502	0.6036
3511	0.604
3520	0.6055
3529	0.6072
3538	0.6085
3547	0.6095
3556	0.6104
3565	0.6112
3574	0.6122
3583	0.6128
3592	0.6133
3601	0.6136
3610	0.6141
3619	0.6143
3628	0.6147
3637	0.6138
3646	0.6118
3655	0.6106
3664	0.6101
3673	0.6098
3682	0.6097
3691	0.6097
3700	0.6104
3709	0.6109
3718	0.6124
3727	0.6122
3736	0.6105
3745	0.6076
3754	0.6042
3763	0.6024
3772	0.6028
3781	0.5971
3790	0.5953
3799	0.5936
3808	0.5919
