Infrared Spectrum: m-Trifluoromethylphenol
Formula: C 7 H 5 F 3 O
CAS: 98-17-9
State: gas
Origin: EPA-IR VAPOR PHASE LIBRARY
1/CM	ABSORBANCE
549.8	0.001277
559.445	0.0006419
569.09	0.001357
578.734	0.002207
588.379	0.003407
598.024	0.002347
607.669	0.001507
617.313	0.001167
626.958	0.002257
636.603	0.002687
646.248	0.004767
655.893	0.012857
665.537	0.011417
675.182	0.005877
684.827	0.014387
694.472	0.029937
704.116	0.017337
713.761	0.007817
723.406	0.002657
733.051	0.003397
742.695	0.015557
752.34	0.017507
761.985	0.006827
771.63	0.013367
781.275	0.025287
790.919	0.025867
800.564	0.013247
810.209	0.005077
819.854	0.001987
829.498	0.002087
839.143	0.003457
848.788	0.007077
858.433	0.012637
868.078	0.014507
877.722	0.023837
887.367	0.056377
897.012	0.067517
906.657	0.034027
916.301	0.010887
925.946	0.004677
935.591	0.002987
945.236	0.002707
954.88	0.002787
964.525	0.002887
974.17	0.003297
983.815	0.002917
993.46	0.005967
1003.1	0.007507
1012.75	0.005267
1022.39	0.003107
1032.04	0.002807
1041.68	0.005987
1051.33	0.020527
1060.97	0.044067
1070.62	0.044637
1080.26	0.039457
1089.91	0.040707
1099.55	0.022437
1109.2	0.018657
1118.84	0.030247
1128.49	0.067867
1138.13	0.154657
1147.78	0.274767
1157.42	0.225717
1167.07	0.205617
1176.71	0.237087
1186.36	0.177677
1196	0.099847
1205.64	0.048387
1215.29	0.029627
1224.93	0.032957
1234.58	0.053357
1244.22	0.056037
1253.87	0.033037
1263.51	0.018277
1273.16	0.016337
1282.8	0.019507
1292.45	0.034067
1302.09	0.070867
1311.74	0.111847
1321.38	0.167137
1331.03	0.280827
1340.67	0.233037
1350.32	0.053447
1359.96	0.012677
1369.61	0.006257
1379.25	0.004837
1388.9	0.004527
1398.54	0.005897
1408.18	0.008697
1417.83	0.011947
1427.47	0.013077
1437.12	0.016977
1446.76	0.035807
1456.41	0.060687
1466.05	0.058527
1475.7	0.032967
1485.34	0.023977
1494.99	0.015367
1504.63	0.010557
1514.28	0.005677
1523.92	0.004337
1533.57	0.003887
1543.21	0.003387
1552.86	0.003257
1562.5	0.004177
1572.15	0.007167
1581.79	0.015207
1591.44	0.026677
1601.08	0.032577
1610.73	0.029727
1620.37	0.020897
1630.01	0.012427
1639.66	0.007587
1649.3	0.005107
1658.95	0.004067
1668.59	0.003247
1678.24	0.002647
1687.88	0.002267
1697.53	0.001977
1707.17	0.001917
1716.82	0.001927
1726.46	0.001647
1736.11	0.001597
1745.75	0.001937
1755.4	0.002567
1765.04	0.002677
1774.69	0.002197
1784.33	0.001527
1793.98	0.001157
1803.62	0.0010767
1813.27	0.0009635
1822.91	0.0010976
1832.55	0.001357
1842.2	0.001577
1851.84	0.001477
1861.49	0.001537
1871.13	0.001207
1880.78	0.0008549
1890.42	0.000883
1900.07	0.0010932
1909.71	0.001317
1919.36	0.001667
1929	0.001897
1938.65	0.001487
1948.29	0.0009173
1957.94	0.0005109
1967.58	0.0004428
1977.23	0.0004179
1986.87	0.0005758
1996.52	0.0004345
2006.16	0.0003666
2015.81	0.00021925
2025.45	0.000436
2035.1	0.0005704
2044.74	0.0006688
2054.38	0.0007552
2064.03	0.0010991
2073.67	0.001377
2083.32	0.001407
2092.96	0.0008845
2102.61	0.0007124
2112.25	0.000652
2121.9	0.0010268
2131.54	0.001377
2141.19	0.0010787
2150.83	0.0006813
2160.48	0.0004144
2170.12	0.0004191
2179.77	0.0004277
2189.41	0.0005144
2199.06	0.0005466
2208.7	0.0007324
2218.35	0.0007353
2227.99	0.0008584
2237.64	0.001107
2247.28	0.0008592
2256.92	0.0010233
2266.57	0.0009133
2276.21	0.001087
2285.86	0.0009019
2295.5	0.0009495
2305.15	0.0008839
2314.79	0.0011368
2324.44	0.001367
2334.08	0.001467
2343.73	0.001397
2353.37	0.001387
2363.02	0.001297
2372.66	0.0011168
2382.31	0.0010623
2391.95	0.001277
2401.6	0.001427
2411.24	0.001357
2420.89	0.001217
2430.53	0.001177
2440.18	0.0007679
2449.82	0.0006483
2459.47	0.0008353
2469.11	0.0011036
2478.75	0.001337
2488.4	0.001247
2498.04	0.001227
2507.69	0.0010402
2517.33	0.0008587
2526.98	0.0006685
2536.62	0.0005391
2546.27	0.0006634
2555.91	0.0005945
2565.56	0.0004868
2575.2	0.0004524
2584.85	0.0003463
2594.49	0.0003516
2604.14	0.0004141
2613.78	0.0004702
2623.43	0.0006442
2633.07	0.0006967
2642.72	0.0007753
2652.36	0.0008139
2662.01	0.0008586
2671.65	0.0006108
2681.29	0.0003426
2690.94	0.0002881
2700.58	0.0002635
2710.23	0.00022162
2719.87	7.75e-05
2729.52	8.51e-05
2739.16	0.00013567
2748.81	0.00016178
2758.45	0.0001723
2768.1	0.0003041
2777.74	0.0003448
2787.39	0.0004598
2797.03	0.0004894
2806.68	0.0003765
2816.32	0.00017454
2825.97	0.0002671
2835.61	0.00016033
2845.26	0.00019756
2854.9	0.0002908
2864.55	8.24e-05
2874.19	0.00022472
2883.84	8.49e-05
2893.48	9.95e-05
2903.12	0.0003432
2912.77	0.0003433
2922.41	0.0005748
2932.06	0.0006918
2941.7	0.0005167
2951.35	0.0006035
2960.99	0.0004526
2970.64	0.0005534
2980.28	0.0004139
2989.93	0.0004548
2999.57	0.0007011
3009.22	0.0008652
3018.86	0.002447
3028.51	0.004407
3038.15	0.004827
3047.8	0.004397
3057.44	0.005117
3067.09	0.005937
3076.73	0.005487
3086.38	0.004647
3096.02	0.003267
3105.67	0.002307
3115.31	0.001527
3124.95	0.0010837
3134.6	0.0007355
3144.24	0.0001267
3153.89	9.99e-05
3163.53	0.0001023
3173.18	0.0003492
3182.82	0.00022113
3192.47	0.00017221
3202.11	0.0001312
3211.76	0.0002416
3221.4	0.0002455
3231.05	0.00016436
3240.69	0.00015202
3250.34	0.0002811
3259.98	0.00018901
3269.63	0.0002826
3279.27	0.00023467
3288.92	0.00019094
3298.56	0.0001237
3308.21	0.0003372
3317.85	0.000331
3327.49	0.0003239
3337.14	0.0007195
3346.78	0.0006382
3356.43	0.0006888
3366.07	0.0008853
3375.72	0.0008675
3385.36	0.0005126
3395.01	0.0006107
3404.65	0.0002853
3414.3	0.0006345
3423.94	0.0007612
3433.59	0.0005679
3443.23	0.0005451
3452.88	0.0002952
3462.52	0.0003984
3472.17	0.000561
3481.81	0.000305
3491.46	0.0002708
3501.1	0.0004981
3510.75	0.0003043
3520.39	0.0003838
3530.04	0.0004267
3539.68	0.00020474
3549.32	0.0003088
3558.97	0.00021267
3568.61	0.0005166
3578.26	0.0004961
3587.9	0.0004096
3597.55	0.0006738
3607.19	0.0010774
3616.84	0.002337
3626.48	0.006817
3636.13	0.021227
3645.77	0.050947
3655.42	0.050277
3665.06	0.017437
3674.71	0.003857
3684.35	0.001257
3694	0.0007404
3703.64	0.0006659
3713.29	0.0002696
3722.93	0.0006041
3732.58	0.0005715
3742.22	0.0004889
3751.86	0.0005147
3761.51	0.0005046
3771.15	0.0005143
3780.8	0.000586
3790.44	0.0003036
3800.09	0.0003265
3809.73	0.0005483
3819.38	0.0007944
3829.02	0.0007567
3838.67	0.000655
3848.31	0.0007853
3857.96	0.0008622
3867.6	0.0009757
3877.25	0.0005344
3886.89	0.0009146
3896.54	0.0004752
3906.18	0.000664
3915.83	0.0007305
3925.47	0.0009276
3935.12	0.0008612
3944.76	0.0005915
3954.41	0.0006684
3964.05	0.0009517
3973.69	0.0007131
3983.34	0.0003369
3992.98	0.0003598
