Infrared Spectrum: m-Aminobenzenesulfonamide
Formula: C 6 H 8 N 2 O 2 S
CAS: 98-18-0
State: gas
Instrument: HP-GC/MS/IRD
Origin: NIST Mass Spectrometry Data Center
1/CM	ABSORBANCE
550	0.0009424
562	0.001728
574	0.0036592
586	0.0055464
598	0.0038816
610	0.0021
622	0.0015008
634	0.0015328
646	0.0019128
658	0.0021784
670	0.0022896
682	0.00318
694	0.0033272
706	0.002104
718	0.0015528
730	0.001352
742	0.0012568
754	0.0013232
766	0.0017688
778	0.0023888
790	0.0018344
802	0.0014456
814	0.0016096
826	0.0023544
838	0.0031248
850	0.002416
862	0.00144
874	0.0010264
886	0.0009344
898	0.0012824
910	0.0012456
922	0.0006368
934	0.000392
946	0.0002584
958	0.0002448
970	0.0002064
982	0.0002216
994	0.0002632
1006	0.000128
1018	3.68e-05
1030	8.56e-05
1042	7.6e-05
1054	7.2e-05
1066	0.0002472
1078	0.0005208
1090	0.000704
1102	0.0004912
1114	0.0004536
1126	0.000456
1138	0.0005152
1150	0.0014512
1162	0.0049056
1174	0.008
1186	0.0039544
1198	0.001148
1210	0.0004728
1222	0.0002752
1234	0.0002448
1246	0.0004952
1258	0.0013752
1270	0.0023032
1282	0.001332
1294	0.0012176
1306	0.0018256
1318	0.0012792
1330	0.0010192
1342	0.0012536
1354	0.002288
1366	0.0044992
1378	0.0067784
1390	0.0046
1402	0.0016264
1414	0.000696
1426	0.0006128
1438	0.0009896
1450	0.001528
1462	0.0013416
1474	0.0014016
1486	0.0019816
1498	0.0010848
1510	0.0004376
1522	0.0005656
1534	0.000952
1546	0.001392
1558	0.0013912
1570	0.0010584
1582	0.0012152
1594	0.0019672
1606	0.002452
1618	0.003484
1630	0.0038752
1642	0.0016024
1654	0.0005336
1666	0.0002672
1678	0.0001432
1690	0.000124
1702	9.2e-05
1714	9.76e-05
1726	0.0001048
1738	7.84e-05
1750	5.76e-05
1762	5.36e-05
1774	2.8e-05
1786	1.44e-05
1798	1.28e-05
1810	1.6e-05
1822	1.76e-05
1834	4.8e-05
1846	3.84e-05
1858	2.56e-05
1870	0
1882	1.52e-05
1894	2.32e-05
1906	5.44e-05
1918	0.0001016
1930	7.6e-05
1942	3.44e-05
1954	5.84e-05
1966	3.52e-05
1978	4.48e-05
1990	4.4e-05
2002	7.2e-06
2014	3.36e-05
2026	7.2e-06
2038	5.28e-05
2050	1.28e-05
2062	3.52e-05
2074	4.72e-05
2086	3.6e-05
2098	1.6e-05
2110	4.08e-05
2122	4.16e-05
2134	3.92e-05
2146	6e-05
2158	3.28e-05
2170	3.28e-05
2182	4.48e-05
2194	2.96e-05
2206	4.24e-05
2218	4.32e-05
2230	4.08e-05
2242	6.32e-05
2254	4.32e-05
2266	4.4e-05
2278	3.04e-05
2290	4.4e-05
2302	2.24e-05
2314	4.56e-05
2326	6.24e-05
2338	5.28e-05
2350	8.4e-05
2362	5.76e-05
2374	2.64e-05
2386	5.68e-05
2398	6.8e-05
2410	6.08e-05
2422	4.08e-05
2434	2.32e-05
2446	5.76e-05
2458	5.52e-05
2470	4.64e-05
2482	4.88e-05
2494	5.92e-05
2506	6.48e-05
2518	6.72e-05
2530	8.48e-05
2542	0.0001
2554	0.0001104
2566	8.56e-05
2578	7.76e-05
2590	8.08e-05
2602	8.8e-05
2614	7.52e-05
2626	7.28e-05
2638	8.8e-05
2650	7.36e-05
2662	7.28e-05
2674	8.56e-05
2686	8.72e-05
2698	5.36e-05
2710	4.64e-05
2722	9.36e-05
2734	5.6e-05
2746	8.08e-05
2758	6.08e-05
2770	4.08e-05
2782	3.6e-05
2794	1.92e-05
2806	6.48e-05
2818	5.68e-05
2830	2.56e-05
2842	5.84e-05
2854	6.16e-05
2866	6.96e-05
2878	8.56e-05
2890	7.76e-05
2902	8.56e-05
2914	9.6e-05
2926	8.4e-05
2938	6.08e-05
2950	9.12e-05
2962	8.08e-05
2974	7.84e-05
2986	7.04e-05
2998	0.0001032
3010	0.0002
3022	0.0003648
3034	0.000384
3046	0.0004576
3058	0.000628
3070	0.0005584
3082	0.0004248
3094	0.0002784
3106	0.0002056
3118	0.0001048
3130	0.0001104
3142	8.8e-05
3154	4.16e-05
3166	7.6e-05
3178	6.88e-05
3190	8.48e-05
3202	0.0001
3214	0.0001896
3226	0.0001616
3238	0.000184
3250	0.0001488
3262	0.000128
3274	0.0001112
3286	8.96e-05
3298	0.0001152
3310	0.0001128
3322	9.92e-05
3334	0.0001936
3346	0.0003984
3358	0.0008168
3370	0.0013064
3382	0.001036
3394	0.000656
3406	0.0006936
3418	0.0008304
3430	0.0007184
3442	0.0004768
3454	0.0006032
3466	0.0008696
3478	0.0010152
3490	0.0009104
3502	0.0007552
3514	0.0005672
3526	0.000264
3538	0.00014
3550	0.0001464
3562	9.92e-05
3574	5.52e-05
3586	6.08e-05
3598	4.48e-05
3610	5.68e-05
3622	8.64e-05
3634	7.12e-05
3646	9.68e-05
3658	5.04e-05
3670	2.8e-05
3682	3.68e-05
3694	9.2e-05
3706	8.64e-05
3718	0.000108
3730	8.24e-05
3742	5.92e-05
3754	3.28e-05
3766	2.72e-05
3778	0.0001
3790	0.0001152
3802	7.12e-05
3814	5.6e-05
3826	6.56e-05
3838	4.16e-05
