Infrared Spectrum: SILANE, TRICHLOROPHENYL-
Formula: C6 H5 Cl3 Si
CAS: 98-13-5
State: SOLUTION (10% CCl4 FOR 3800-1300, 11% CS2 FOR 1300-650, AND 10% CCl4 FOR 650-250) VS SOLVENT
Boiling point: 201 C
Class: COBLENTZ III
Instrument: PERKIN-ELMER 521 (GRATING)
Instrument parameters: FILTERS AT 3150, 2500, 2000, 1150, 700, 410. GRATING CHANGES: 2000, 630
Sampling: TRANSMISSION
Path length: 0.012 CM, 0.011 CM, AND 0.011 CM
Resolution: 2
Origin: DOW CORNING CORP.
1/CM	TRANSMITTANCE
3810	0.9392
3801	0.9355
3792	0.9312
3783	0.9275
3774	0.9262
3765	0.9286
3756	0.9341
3747	0.9378
3738	0.9399
3729	0.937
3720	0.9339
3711	0.9318
3702	0.93
3693	0.9281
3684	0.927
3675	0.9259
3666	0.925
3657	0.9244
3648	0.9239
3639	0.9242
3630	0.9259
3621	0.9277
3612	0.9312
3603	0.933
3594	0.9339
3585	0.9339
3576	0.9338
3567	0.9338
3558	0.9338
3549	0.9338
3540	0.9337
3531	0.9337
3522	0.9336
3513	0.9333
3504	0.9331
3495	0.9328
3486	0.9325
3477	0.9324
3468	0.9317
3459	0.931
3450	0.9302
3441	0.9295
3432	0.9287
3423	0.9282
3414	0.9278
3405	0.9271
3396	0.9268
3387	0.9263
3378	0.9265
3369	0.9267
3360	0.927
3351	0.9273
3342	0.9285
3333	0.9297
3324	0.931
3315	0.9311
3306	0.9308
3297	0.9301
3288	0.9295
3279	0.9288
3270	0.9282
3261	0.9275
3252	0.9268
3243	0.9261
3234	0.9251
3225	0.9235
3216	0.9213
3207	0.9192
3198	0.9173
3189	0.9147
3180	0.9117
3171	0.9094
3162	0.9059
3153	0.8928
3144	0.8783
3135	0.8878
3126	0.8918
3117	0.8877
3108	0.8693
3099	0.8158
3090	0.7038
3081	0.6846
3072	0.7244
3063	0.6736
3054	0.7608
3045	0.8011
3036	0.8128
3027	0.8231
3018	0.8233
3009	0.8107
3000	0.8677
2991	0.8808
2982	0.8817
2973	0.8768
2964	0.8755
2955	0.8705
2946	0.8515
2937	0.8427
2928	0.8451
2919	0.8601
2910	0.873
2901	0.8815
2892	0.8888
2883	0.8933
2874	0.8938
2865	0.8744
2856	0.8757
2847	0.8832
2838	0.8934
2829	0.8997
2820	0.9051
2811	0.9087
2802	0.9109
2793	0.9121
2784	0.9135
2775	0.9142
2766	0.9147
2757	0.9152
2748	0.9154
2739	0.9153
2730	0.9151
2721	0.9083
2712	0.889
2703	0.8975
2694	0.9127
2685	0.915
2676	0.9171
2667	0.918
2658	0.9183
2649	0.9183
2640	0.9175
2631	0.9137
2622	0.9127
2613	0.9118
2604	0.9124
2595	0.9125
2586	0.9123
2577	0.9121
2568	0.9123
2559	0.9127
2550	0.9131
2541	0.9135
2532	0.9142
2523	0.9147
2514	0.9154
2505	0.916
2496	0.9168
2487	0.9178
2478	0.919
2469	0.92
2460	0.9209
2451	0.9217
2442	0.9225
2433	0.9232
2424	0.9241
2415	0.9252
2406	0.9264
2397	0.9266
2388	0.9265
2379	0.9263
2370	0.9256
2361	0.9246
2352	0.9236
2343	0.923
2334	0.9225
2325	0.9221
2316	0.9224
2307	0.9225
2298	0.9223
2289	0.9221
2280	0.923
2271	0.9238
2262	0.9232
2253	0.917
2244	0.9087
2235	0.9157
2226	0.9233
2217	0.9257
2208	0.9281
2199	0.93
2190	0.9318
2181	0.9337
2172	0.935
2163	0.9335
2154	0.93
2145	0.9307
2136	0.9316
2127	0.9339
2118	0.9363
2109	0.938
2100	0.9395
2091	0.9408
2082	0.9418
2073	0.9428
2064	0.9436
2055	0.944
2046	0.945
2037	0.9459
2028	0.946
2019	0.9449
2010	0.9405
2001	0.9299
1992	0.9213
1983	0.8868
1974	0.9125
1965	0.8925
1956	0.8961
1947	0.919
1938	0.9248
1929	0.9278
1920	0.9244
1911	0.8821
1902	0.9131
1893	0.8518
1884	0.9016
1875	0.9168
1866	0.9244
1857	0.9292
1848	0.9242
1839	0.8796
1830	0.9099
1821	0.8724
1812	0.8817
1803	0.9195
1794	0.9237
1785	0.921
1776	0.9105
1767	0.8966
1758	0.9184
1749	0.9228
1740	0.924
1731	0.9234
1722	0.9212
1713	0.9204
1704	0.9208
1695	0.9213
1686	0.9217
1677	0.9225
1668	0.9107
1659	0.8725
1650	0.9115
1641	0.9199
1632	0.9206
1623	0.9103
1614	0.9008
1605	0.8978
1596	0.6468
1587	0.7922
1578	0.8515
1569	0.8663
1560	0.8532
1551	0.8371
1542	0.8371
1533	0.8624
1524	0.8827
1515	0.8937
1506	0.9027
1497	0.9028
1488	0.743
1479	0.903
1470	0.8771
1461	0.8988
1452	0.8685
1443	0.8061
1434	0.2062
1425	0.7151
1416	0.8616
1407	0.8811
1398	0.9052
1389	0.9127
1380	0.856
1371	0.8925
1362	0.913
1353	0.9152
1344	0.9114
1335	0.7465
1326	0.9071
1317	0.9059
1308	0.8014
1299	0.8539
1290	0.9152
1281	0.9197
1272	0.9049
1263	0.8915
1254	0.9045
1245	0.9195
1236	0.9188
1227	0.9134
1218	0.9167
1209	0.9137
1200	0.8949
1191	0.7469
1182	0.8697
1173	0.8825
1164	0.8718
1155	0.8515
1146	0.8612
1137	0.8315
1128	0.7365
1119	0.0096
1110	0.7388
1101	0.7998
1092	0.8131
1083	0.8387
1074	0.8514
1065	0.821
1056	0.8499
1047	0.8707
1038	0.8734
1029	0.8199
1020	0.8703
1011	0.8755
1002	0.7311
993	0.8633
984	0.8732
975	0.8821
966	0.8993
957	0.9118
948	0.912
939	0.9091
930	0.9042
921	0.882
912	0.8999
903	0.9108
894	0.9109
885	0.9074
876	0.9028
867	0.8928
858	0.8837
849	0.8843
840	0.8954
831	0.9042
822	0.9043
813	0.8978
804	0.8834
795	0.8774
786	0.8815
777	0.8691
768	0.8633
759	0.8321
750	0.7487
741	0.1187
732	0.6518
723	0.3134
714	0.4095
705	0.6145
696	0.0434
687	0.626
678	0.7294
669	0.8297
660	0.8451
651	0.8375
642	0.7358
633	0.5768
624	0.1208
615	0.4894
606	0.3455
597	0.0023
588	0.0061
579	0.0432
570	0.4573
561	0.8035
552	0.8339
543	0.8505
534	0.8022
525	0.416
516	0.1118
507	0.7048
498	0.8758
489	0.9092
480	0.9278
471	0.9192
462	0.7297
453	0.9136
444	0.9416
435	0.9549
426	0.9605
417	0.9635
408	0.964
399	0.9631
390	0.9621
381	0.9642
372	0.9633
363	0.9593
354	0.9428
345	0.7481
336	0.9205
327	0.9354
318	0.9327
309	0.9255
300	0.9167
291	0.8887
282	0.8399
273	0.8167
264	0.7954
255	0.7672
