Infrared Spectrum: 1-tert-Butyl-3,4,5-trimethylbenzene
Formula: C 13 H 20
CAS: 98-23-7
State: gas
Instrument: HP-GC/MS/IRD
Origin: NIST Mass Spectrometry Data Center
1/CM	ABSORBANCE
550	0.0005076
562	0.0002088
574	0.000144
586	5.04e-05
598	9.36e-05
610	0.0003384
622	0.0007164
634	0.0003816
646	0.000108
658	0.0001188
670	3.24e-05
682	0.0001008
694	0.0001764
706	0.0009432
718	0.0014796
730	0.0004968
742	0.0001188
754	0.0001404
766	0.0001116
778	0.0001188
790	0.0001944
802	0.0002304
814	0.0001836
826	0.0001476
838	0.000252
850	0.0010332
862	0.0030672
874	0.0021672
886	0.0005904
898	0.0003456
910	0.0004716
922	0.0013032
934	0.0013428
946	0.0005328
958	0.000378
970	0.0005472
982	0.0010404
994	0.0018144
1006	0.0015516
1018	0.000882
1030	0.0005652
1042	0.0004176
1054	0.0003996
1066	0.0005112
1078	0.0006876
1090	0.0005184
1102	0.0003852
1114	0.0005364
1126	0.000432
1138	0.0003168
1150	0.0003636
1162	0.0005112
1174	0.0010908
1186	0.0024012
1198	0.0033336
1210	0.0015228
1222	0.0014472
1234	0.0026676
1246	0.0010944
1258	0.0006264
1270	0.0006984
1282	0.0014292
1294	0.0028584
1306	0.0019224
1318	0.0007488
1330	0.0007596
1342	0.0011484
1354	0.0024408
1366	0.00414
1378	0.0032832
1390	0.0030096
1402	0.0031752
1414	0.0023256
1426	0.0021276
1438	0.0029232
1450	0.0045288
1462	0.0054468
1474	0.0066348
1486	0.0081504
1498	0.0046332
1510	0.0020088
1522	0.0013824
1534	0.001314
1546	0.00144
1558	0.0018432
1570	0.0024984
1582	0.0029052
1594	0.00261
1606	0.0028224
1618	0.00171
1630	0.0006336
1642	0.000396
1654	0.0003348
1666	0.0002988
1678	0.0002556
1690	0.0002304
1702	0.0002376
1714	0.0002844
1726	0.0005256
1738	0.0006768
1750	0.0005472
1762	0.0002988
1774	0.00018
1786	0.0001728
1798	0.0001476
1810	0.0001152
1822	0.0001044
1834	0.0001116
1846	9.72e-05
1858	0.0001116
1870	0.0001152
1882	0.0001368
1894	0.0001764
1906	0.0001368
1918	0.000126
1930	0.0001044
1942	8.28e-05
1954	7.2e-05
1966	7.56e-05
1978	8.28e-05
1990	6.84e-05
2002	5.4e-05
2014	6.48e-05
2026	5.76e-05
2038	5.04e-05
2050	4.68e-05
2062	5.76e-05
2074	1.8e-05
2086	5.4e-05
2098	5.04e-05
2110	4.68e-05
2122	3.96e-05
2134	2.88e-05
2146	6.12e-05
2158	4.32e-05
2170	7.56e-05
2182	7.2e-05
2194	5.4e-05
2206	2.52e-05
2218	2.88e-05
2230	1.44e-05
2242	0
2254	1.44e-05
2266	2.88e-05
2278	6.84e-05
2290	5.4e-05
2302	3.96e-05
2314	2.88e-05
2326	1.44e-05
2338	1.44e-05
2350	1.8e-05
2362	3.24e-05
2374	5.4e-05
2386	9.36e-05
2398	0.0001116
2410	9e-05
2422	8.64e-05
2434	6.12e-05
2446	6.84e-05
2458	6.48e-05
2470	9e-05
2482	9.72e-05
2494	7.2e-05
2506	4.32e-05
2518	5.04e-05
2530	5.4e-05
2542	5.76e-05
2554	0.0001152
2566	9e-05
2578	9e-05
2590	7.2e-05
2602	6.84e-05
2614	7.2e-05
2626	7.92e-05
2638	0.0001152
2650	0.000162
2662	0.0001836
2674	0.0001908
2686	0.000216
2698	0.0002628
2710	0.0003168
2722	0.0004968
2734	0.0007128
2746	0.0007092
2758	0.0005328
2770	0.0005616
2782	0.0006444
2794	0.0007488
2806	0.0009684
2818	0.0012384
2830	0.0016776
2842	0.0025272
2854	0.0047124
2866	0.0095256
2878	0.0129636
2890	0.0117936
2902	0.012834
2914	0.0163368
2926	0.0193356
2938	0.0201816
2950	0.0240768
2962	0.034668
2974	0.03024
2986	0.0135144
2998	0.0064476
3010	0.004662
3022	0.0044028
3034	0.0046332
3046	0.004806
3058	0.0045648
3070	0.0032652
3082	0.0020052
3094	0.0013428
3106	0.0009972
3118	0.000774
3130	0.00063
3142	0.0005076
3154	0.0004212
3166	0.0004104
3178	0.0004176
3190	0.0003636
3202	0.0003492
3214	0.0003564
3226	0.0002988
3238	0.0002484
3250	0.0001872
3262	0.00018
3274	0.0001836
3286	0.0001368
3298	0.0001224
3310	8.28e-05
3322	0.0001008
3334	7.92e-05
3346	5.76e-05
3358	5.76e-05
3370	7.92e-05
3382	0.0001152
3394	9.36e-05
3406	7.92e-05
3418	5.76e-05
3430	5.76e-05
3442	5.4e-05
3454	5.76e-05
3466	3.96e-05
3478	4.32e-05
3490	2.88e-05
3502	5.04e-05
3514	3.6e-05
3526	4.68e-05
3538	5.4e-05
3550	4.68e-05
3562	5.4e-05
3574	3.24e-05
3586	5.76e-05
3598	5.04e-05
3610	5.4e-05
3622	6.48e-05
3634	5.4e-05
3646	0
3658	2.16e-05
3670	2.88e-05
3682	4.32e-05
3694	3.6e-06
3706	1.44e-05
3718	5.04e-05
3730	5.76e-05
3742	3.96e-05
3754	5.04e-05
3766	3.96e-05
3778	4.32e-05
3790	7.2e-06
3802	3.96e-05
3814	3.6e-05
3826	6.48e-05
3838	6.48e-05
