Infrared Spectrum: 3,4-DICHLOROBENZENE-SULFONYL CHLORIDE
Formula: C6 H3 Cl3 O2 S
CAS: 98-31-7
State: LIQUID
Melting point: 22.5-24.5 C
Class: COBLENTZ
Instrument: Not specified, most likely a prism, grating, or hybrid spectrometer.
Sampling: TRANSMISSION
Path length: 0.003 CM
Resolution: 4
Origin: WYANDOTTE CHEMICALS CORP., WYANDOTTE, MICHIGAN, USA
MICROMETERS	TRANSMITTANCE
2.055	0.979
2.09587	0.998
2.13675	1.01
2.17762	1.006
2.21849	1.006
2.25937	1.003
2.30024	0.998
2.34111	0.989
2.38199	0.993
2.42286	1
2.46373	0.991
2.50461	1.03
2.54548	1.01
2.58635	0.998
2.62723	0.998
2.6681	0.994
2.70897	1
2.74985	1
2.79072	0.988
2.83159	0.996
2.87247	0.993
2.91334	0.993
2.95421	0.979
2.99509	0.979
3.03596	0.967
3.07683	0.953
3.11771	0.945
3.15858	0.894
3.19945	0.726
3.24033	0.393
3.2812	0.892
3.32207	0.849
3.36295	0.929
3.40382	0.9
3.4447	0.941
3.48557	0.953
3.52644	0.933
3.56732	0.941
3.60819	0.955
3.64906	0.936
3.68994	0.931
3.73081	0.947
3.77168	0.943
3.81256	0.969
3.85343	0.964
3.8943	0.947
3.93518	0.832
3.97605	0.926
4.01692	0.962
4.0578	0.962
4.09867	0.958
4.13954	0.97
4.18042	0.964
4.22129	0.935
4.26216	0.94
4.30304	0.96
4.34391	0.974
4.38478	0.979
4.42566	0.96
4.46653	0.929
4.5074	0.964
4.54828	0.979
4.58915	0.981
4.63002	0.981
4.6709	0.972
4.71177	0.982
4.75264	0.982
4.79352	0.986
4.83439	0.982
4.87526	0.979
4.91614	0.984
4.95701	0.989
4.99788	0.989
5.03876	0.97
5.07963	0.969
5.1205	0.974
5.16138	0.972
5.20225	0.972
5.24312	0.902
5.284	0.858
5.32487	0.95
5.36574	0.976
5.40662	0.97
5.44749	0.969
5.48836	0.964
5.52924	0.936
5.57011	0.931
5.61098	0.895
5.65186	0.844
5.69273	0.841
5.7336	0.921
5.77448	0.95
5.81535	0.936
5.85622	0.928
5.8971	0.929
5.93797	0.929
5.97885	0.911
6.01972	0.854
6.06059	0.794
6.10147	0.835
6.14234	0.861
6.18321	0.841
6.22409	0.83
6.26496	0.781
6.30583	0.34
6.34671	0.317
6.38758	0.529
6.42845	0.721
6.46933	0.825
6.5102	0.861
6.55107	0.885
6.59195	0.89
6.63282	0.88
6.67369	0.856
6.71457	0.776
6.75544	0.671
6.79631	0.454
6.83719	0.114
6.87806	0.237
6.91893	0.557
6.95981	0.639
7.00068	0.649
7.04155	0.589
7.08243	0.456
7.1233	0.174
7.16417	0.027
7.20505	0.027
7.24592	0.027
7.28679	0.049
7.32767	0.191
7.36854	0.466
7.40941	0.649
7.45029	0.731
7.49116	0.779
7.53203	0.801
7.57291	0.82
7.61378	0.851
7.65465	0.859
7.69553	0.851
7.7364	0.813
7.77727	0.695
7.81815	0.492
7.85902	0.637
7.89989	0.75
7.94077	0.733
7.98164	0.67
8.02251	0.69
8.06339	0.647
8.10426	0.553
8.14513	0.483
8.18601	0.461
8.22688	0.531
8.26775	0.572
8.30863	0.521
8.3495	0.4
8.39037	0.162
8.43125	0.03
8.47212	0.034
8.51299	0.032
8.55387	0.117
8.59474	0.278
8.63562	0.331
8.67649	0.182
8.71736	0.058
8.75824	0.039
8.79911	0.068
8.83998	0.162
8.88086	0.374
8.92173	0.576
8.9626	0.663
9.00348	0.695
9.04435	0.641
9.08522	0.487
9.1261	0.176
9.16697	0.164
9.20784	0.429
9.24872	0.576
9.28959	0.675
9.33046	0.755
9.37134	0.81
9.41221	0.837
9.45308	0.83
9.49396	0.788
9.53483	0.685
9.5757	0.43
9.61658	0.071
9.65745	0.051
9.69832	0.22
9.7392	0.461
9.78007	0.641
9.82094	0.757
9.86182	0.82
9.90269	0.87
9.94356	0.892
9.98444	0.899
10.0253	0.909
10.0662	0.902
10.1071	0.909
10.1479	0.909
10.1888	0.912
10.2297	0.905
10.2706	0.899
10.3114	0.887
10.3523	0.864
10.3932	0.844
10.434	0.803
10.4749	0.793
10.5158	0.803
10.5567	0.849
10.5975	0.888
10.6384	0.897
10.6793	0.902
10.7202	0.909
10.761	0.907
10.8019	0.909
10.8428	0.911
10.8837	0.907
10.9245	0.897
10.9654	0.883
11.0063	0.847
11.0471	0.806
11.088	0.75
11.1289	0.683
11.1698	0.588
11.2106	0.487
11.2515	0.396
11.2924	0.336
11.3333	0.35
11.3741	0.427
11.415	0.56
11.4559	0.675
11.4968	0.747
11.5376	0.791
11.5785	0.823
11.6194	0.832
11.6602	0.841
11.7011	0.844
11.742	0.827
11.7829	0.801
11.8237	0.765
11.8646	0.724
11.9055	0.664
11.9464	0.589
11.9872	0.502
12.0281	0.357
12.069	0.2
12.1099	0.107
12.1507	0.044
12.1916	0.039
12.2325	0.041
12.2733	0.044
12.3142	0.116
12.3551	0.273
12.396	0.485
12.4368	0.647
12.4777	0.735
12.5186	0.782
12.5595	0.818
12.6003	0.834
12.6412	0.849
12.6821	0.854
12.723	0.854
12.7638	0.851
12.8047	0.846
12.8456	0.825
12.8864	0.805
12.9273	0.788
12.9682	0.769
13.0091	0.75
13.0499	0.736
13.0908	0.728
13.1317	0.711
13.1726	0.704
13.2134	0.702
13.2543	0.719
13.2952	0.741
13.3361	0.767
13.3769	0.791
13.4178	0.813
13.4587	0.829
13.4995	0.842
13.5404	0.852
13.5813	0.868
13.6222	0.871
13.663	0.878
13.7039	0.876
13.7448	0.883
13.7857	0.888
13.8265	0.888
13.8674	0.885
13.9083	0.883
13.9492	0.876
13.99	0.878
14.0309	0.863
14.0718	0.861
14.1126	0.854
14.1535	0.846
14.1944	0.825
14.2353	0.806
14.2761	0.77
14.317	0.68
14.3579	0.516
14.3988	0.333
14.4396	0.232
14.4805	0.314
14.5214	0.492
14.5623	0.641
14.6031	0.7
14.644	0.723
14.6849	0.717
14.7257	0.641
14.7666	0.509
14.8075	0.352
14.8484	0.258
14.8892	0.251
14.9301	0.326
14.971	0.435
15.0119	0.529
15.0527	0.591
15.0936	0.61
15.1345	0.61
15.1754	0.647
15.2162	0.695
15.2571	0.723
15.298	0.736
15.3389	0.741
15.3797	0.74
15.4206	0.747
15.4615	0.748
15.5023	0.752
15.5432	0.747
15.5841	0.75
15.625	0.743
15.6658	0.735
15.7067	0.729
15.7476	0.729
15.7885	0.721
15.8293	0.705
15.8702	0.697
15.9111	0.678
15.952	0.658
