Infrared Spectrum: m-Nitrobenzenesulfonic acid
Formula: C6 H5 N O5 S
CAS: 98-47-5
State: SOLID (SPLIT MULL)
Class: COBLENTZ III
Instrument: DOW KBr FOREPRISM-GRATING
Instrument parameters: BLAZED AT 3.5, 12.0, 20.0 MICRON AND CHANGED AT 5.0, 7.5, 14.9 MICRON
Sampling: TRANSMISSION
Resolution: 2
Origin: DOW CHEMICAL COMPANY
1/CM	TRANSMITTANCE
3818	0.8201
3809	0.8221
3800	0.8217
3791	0.8187
3782	0.8239
3773	0.8306
3764	0.8391
3755	0.8504
3746	0.8662
3737	0.8715
3728	0.8708
3719	0.8693
3710	0.8723
3701	0.8697
3692	0.8742
3683	0.8715
3674	0.8694
3665	0.8402
3656	0.8298
3647	0.8061
3638	0.7712
3629	0.7503
3620	0.7343
3611	0.7131
3602	0.6889
3593	0.6628
3584	0.6371
3575	0.6189
3566	0.5993
3557	0.576
3548	0.541
3539	0.5127
3530	0.4912
3521	0.4712
3512	0.4512
3503	0.4294
3494	0.4059
3485	0.383
3476	0.364
3467	0.3436
3458	0.318
3449	0.2979
3440	0.2807
3431	0.2633
3422	0.2489
3413	0.2381
3404	0.2273
3395	0.2162
3386	0.2059
3377	0.1979
3368	0.1904
3359	0.1829
3350	0.1766
3341	0.1709
3332	0.1658
3323	0.1616
3314	0.1575
3305	0.1538
3296	0.1501
3287	0.1466
3278	0.144
3269	0.1416
3260	0.1394
3251	0.1371
3242	0.1352
3233	0.133
3224	0.1309
3215	0.1296
3206	0.1284
3197	0.1268
3188	0.1253
3179	0.1241
3170	0.1226
3161	0.1219
3152	0.1215
3143	0.1219
3134	0.1209
3125	0.1171
3116	0.1084
3107	0.101
3098	0.0991
3089	0.1018
3080	0.1072
3071	0.109
3062	0.1105
3053	0.1117
3044	0.1123
3035	0.1119
3026	0.1136
3017	0.1145
3008	0.1153
2999	0.1154
2990	0.1159
2981	0.117
2972	0.1179
2963	0.1178
2954	0.1175
2945	0.1174
2936	0.1181
2927	0.1228
2918	0.1254
2909	0.1276
2900	0.1294
2891	0.1296
2882	0.13
2873	0.1303
2864	0.1322
2855	0.134
2846	0.1366
2837	0.1396
2828	0.1428
2819	0.1458
2810	0.1488
2801	0.1518
2792	0.1549
2783	0.1582
2774	0.1617
2765	0.1652
2756	0.1686
2747	0.1721
2738	0.1754
2729	0.1787
2720	0.1823
2711	0.1863
2702	0.1904
2693	0.1946
2684	0.1991
2675	0.2037
2666	0.2084
2657	0.2131
2648	0.2174
2639	0.2216
2630	0.2259
2621	0.2314
2612	0.2368
2603	0.242
2594	0.2471
2585	0.2521
2576	0.2572
2567	0.2622
2558	0.268
2549	0.2739
2540	0.2799
2531	0.2858
2522	0.2917
2513	0.2976
2504	0.3034
2495	0.3098
2486	0.3162
2477	0.3222
2468	0.3282
2459	0.3328
2450	0.3374
2441	0.342
2432	0.3474
2423	0.3512
2414	0.3559
2405	0.3616
2396	0.3671
2387	0.3716
2378	0.3753
2369	0.3778
2360	0.378
2351	0.3796
2342	0.383
2333	0.3877
2324	0.3894
2315	0.3873
2306	0.385
2297	0.383
2288	0.3809
2279	0.3788
2270	0.3768
2261	0.3748
2252	0.3736
2243	0.3726
2234	0.3714
2225	0.3705
2216	0.3706
2207	0.3714
2198	0.373
2189	0.3768
2180	0.3825
2171	0.388
2162	0.393
2153	0.3978
2144	0.4026
2135	0.4072
2126	0.4112
2117	0.4152
2108	0.4191
2099	0.4228
2090	0.4258
2081	0.429
2072	0.4321
2063	0.4333
2054	0.4335
2045	0.4384
2036	0.4431
2027	0.4354
2018	0.4353
2009	0.4351
2000	0.435
1991	0.436
1982	0.4359
1973	0.4322
1964	0.4312
1955	0.4344
1946	0.4317
1937	0.4279
1928	0.4198
1919	0.4143
1910	0.4058
1901	0.395
1892	0.3934
1883	0.3888
1874	0.3849
1865	0.3797
1856	0.3744
1847	0.3684
1838	0.3637
1829	0.3584
1820	0.3539
1811	0.3486
1802	0.3409
1793	0.3355
1784	0.3316
1775	0.3299
1766	0.3225
1757	0.3193
1748	0.3151
1739	0.3142
1730	0.3034
1721	0.3027
1712	0.3084
1703	0.3091
1694	0.3169
1685	0.3159
1676	0.3282
1667	0.335
1658	0.3555
1649	0.3788
1640	0.3936
1631	0.4075
1622	0.431
1613	0.4352
1604	0.2965
1595	0.398
1586	0.4592
1577	0.4578
1568	0.4944
1559	0.509
1550	0.4906
1541	0.3019
1532	0.0717
1523	0.0679
1514	0.1248
1505	0.1968
1496	0.2505
1487	0.2787
1478	0.2991
1469	0.307
1460	0.278
1451	0.335
1442	0.3544
1433	0.3638
1424	0.2741
1415	0.335
1406	0.335
1397	0.3364
1388	0.3326
1379	0.3228
1370	0.2976
1361	0.1691
1352	0.0436
1343	0.0566
1334	0.1998
1325	0.2834
1316	0.1987
1307	0.2387
1298	0.2557
1289	0.2814
1280	0.2927
1271	0.1748
1262	0.1178
1253	0.0813
1244	0.077
1235	0.056
1226	0.0907
1217	0.1164
1208	0.1088
1199	0.0793
1190	0.0504
1181	0.0544
1172	0.058
1163	0.0672
1154	0.0763
1145	0.0732
1136	0.0968
1127	0.1385
1118	0.1733
1109	0.2232
1100	0.2544
1091	0.236
1082	0.1071
1073	0.1227
1064	0.0876
1055	0.1972
1046	0.2695
1037	0.0812
1028	0.0736
1019	0.0928
1010	0.1494
1001	0.2884
992	0.1344
983	0.2489
974	0.369
965	0.4246
956	0.4774
947	0.5146
938	0.5479
929	0.4632
920	0.5844
911	0.4873
902	0.6393
893	0.6174
884	0.402
875	0.1138
866	0.6865
857	0.77
848	0.7899
839	0.8001
830	0.814
821	0.8213
812	0.7832
803	0.2271
794	0.8161
785	0.8316
776	0.8156
767	0.7462
758	0.5362
749	0.8061
740	0.7743
731	0.0857
722	0.7365
713	0.7844
704	0.7993
695	0.7901
686	0.7632
677	0.5712
668	0.0597
659	0.3859
650	0.7172
641	0.7521
632	0.7178
623	0.6056
614	0.0816
605	0.0842
596	0.3738
587	0.423
578	0.3354
569	0.2528
560	0.4223
551	0.606
542	0.6321
533	0.5185
524	0.6179
515	0.6774
506	0.6882
497	0.6545
488	0.5958
479	0.6433
470	0.6751
461	0.6875
