Infrared Spectrum: p-Toluenesulfonyl chloride
Formula: C 7 H 7 Cl O 2 S
CAS: 98-59-9
State: gas
Instrument: HP-GC/MS/IRD
Origin: NIST Mass Spectrometry Data Center
1/CM	ABSORBANCE
550	0.0030831
562	0.0139879
574	0.0406092
586	0.0275372
598	0.0054825
610	0.0024553
622	0.0033454
634	0.0069273
646	0.0193801
658	0.0224417
670	0.0051643
682	0.0015781
694	0.0022231
706	0.0021328
718	0.0007697
730	0.0007052
742	0.0007611
754	0.0004386
766	0.0004945
778	0.00086
790	0.0015437
802	0.0040592
814	0.0057319
826	0.0019264
838	0.0005461
850	0.0003913
862	0.0002623
874	0.0001849
886	0.0001204
898	5.16e-05
910	1.29e-05
922	2.58e-05
934	9.89e-05
946	0.0001978
958	0.0001376
970	0.0001333
982	0.0001419
994	0.0001419
1006	0.0004128
1018	0.0012212
1030	0.0005848
1042	0.0005633
1054	0.0008772
1066	0.0014534
1078	0.0036206
1090	0.0046784
1102	0.0017071
1114	0.0013803
1126	0.0013975
1138	0.0019135
1150	0.0039044
1162	0.0059254
1174	0.0210571
1186	0.0368424
1198	0.0175096
1210	0.0044333
1222	0.0022618
1234	0.0017802
1246	0.0011008
1258	0.0008514
1270	0.0011352
1282	0.0015136
1294	0.0013717
1306	0.0013502
1318	0.0009718
1330	0.0007611
1342	0.0010664
1354	0.0017329
1366	0.0028638
1378	0.0074562
1390	0.0218956
1402	0.0281478
1414	0.0106038
1426	0.0030702
1438	0.0017673
1450	0.0012341
1462	0.0011395
1474	0.0011094
1486	0.0020038
1498	0.0022876
1510	0.0009804
1522	0.0008084
1534	0.0006579
1546	0.0006794
1558	0.0008471
1570	0.0010449
1582	0.001892
1594	0.003956
1606	0.0022446
1618	0.0009847
1630	0.000817
1642	0.000645
1654	0.0003999
1666	0.0002279
1678	0.0001333
1690	0.0001118
1702	0.000129
1714	0.0001419
1726	0.0001806
1738	0.0002709
1750	0.000301
1762	0.0002924
1774	0.000258
1786	0.0003999
1798	0.0004644
1810	0.0001677
1822	0.0001204
1834	0.0001075
1846	0.0001376
1858	0.0001935
1870	0.0001935
1882	0.0002193
1894	0.0003225
1906	0.0005676
1918	0.0005375
1930	0.0002322
1942	0.0001204
1954	7.74e-05
1966	7.31e-05
1978	6.45e-05
1990	8.6e-05
2002	7.31e-05
2014	3.87e-05
2026	3.87e-05
2038	4.73e-05
2050	3.87e-05
2062	2.58e-05
2074	2.58e-05
2086	6.88e-05
2098	9.03e-05
2110	7.31e-05
2122	3.44e-05
2134	5.59e-05
2146	7.74e-05
2158	8.6e-05
2170	0.0001204
2182	8.6e-05
2194	4.3e-05
2206	4.73e-05
2218	3.87e-05
2230	3.87e-05
2242	6.88e-05
2254	7.74e-05
2266	0.0001677
2278	0.0001763
2290	0.0001204
2302	0.0001333
2314	0.0001204
2326	8.6e-05
2338	7.31e-05
2350	6.88e-05
2362	0.0001161
2374	0.0001204
2386	0.0001118
2398	0.0001032
2410	0.0001075
2422	6.88e-05
2434	1.72e-05
2446	4.3e-06
2458	0
2470	6.45e-05
2482	8.17e-05
2494	5.16e-05
2506	6.88e-05
2518	6.88e-05
2530	3.01e-05
2542	0.0001032
2554	0.0001677
2566	0.0002666
2578	0.0003526
2590	0.0002709
2602	0.0001247
2614	0.0001032
2626	2.58e-05
2638	3.87e-05
2650	2.58e-05
2662	4.73e-05
2674	7.74e-05
2686	6.02e-05
2698	5.16e-05
2710	1.29e-05
2722	1.72e-05
2734	6.45e-05
2746	0.0001247
2758	7.31e-05
2770	6.88e-05
2782	6.02e-05
2794	8.17e-05
2806	4.73e-05
2818	6.45e-05
2830	0.0001161
2842	0.0001634
2854	0.000344
2866	0.0006837
2878	0.0010578
2890	0.0010664
2902	0.0009116
2914	0.0009761
2926	0.0017415
2938	0.002451
2950	0.0015394
2962	0.0009073
2974	0.0008127
2986	0.0007955
2998	0.0008987
3010	0.0011223
3022	0.0013072
3034	0.0017415
3046	0.0022145
3058	0.0021543
3070	0.0020683
3082	0.0011653
3094	0.0005074
3106	0.0003053
3118	0.0002408
3130	0.0001591
3142	9.89e-05
3154	0.0001161
3166	0.0001118
3178	6.02e-05
3190	6.45e-05
3202	5.59e-05
3214	4.73e-05
3226	1.72e-05
3238	3.01e-05
3250	6.02e-05
3262	4.3e-05
3274	3.44e-05
3286	6.88e-05
3298	9.89e-05
3310	8.17e-05
3322	8.17e-05
3334	6.02e-05
3346	8.6e-05
3358	8.17e-05
3370	9.46e-05
3382	9.46e-05
3394	8.6e-05
3406	0.0001204
3418	0.0001247
3430	8.6e-05
3442	0.0001032
3454	6.45e-05
3466	7.31e-05
3478	9.46e-05
3490	9.89e-05
3502	7.31e-05
3514	0.0001118
3526	0.0001548
3538	0.0001591
3550	0.0001505
3562	0.0001462
3574	0.0001892
3586	0.0001591
3598	0.0001419
3610	0.0001505
3622	0.0001462
3634	0.0001462
3646	0.0001419
3658	0.0001763
3670	0.0002193
3682	0.0001591
3694	0.0001462
3706	0.0001849
3718	0.0001935
3730	0.0001591
3742	0.000215
3754	0.0001677
3766	0.0001333
3778	0.0001333
3790	0.0001419
3802	0.0001591
3814	0.0001161
3826	0.0001204
3838	0.0001376
