Infrared Spectrum: 4-t-Butylcyclohexanone
Formula: C 10 H 18 O
CAS: 98-53-3
State: gas
Instrument: HP-GC/MS/IRD
Origin: NIST Mass Spectrometry Data Center
1/CM	ABSORBANCE
550	0.000333
562	7.77e-05
574	0.000148
586	0.0001036
598	0.0001517
610	8.88e-05
622	3.7e-06
634	8.88e-05
646	8.14e-05
658	0.0001332
670	0.0001591
682	8.88e-05
694	0.0001221
706	8.88e-05
718	0.0001443
730	0.0003182
742	0.0004847
754	0.0004255
766	0.0005439
778	0.0005365
790	0.0002146
802	0.0001221
814	9.62e-05
826	8.51e-05
838	0.0002109
850	9.99e-05
862	9.25e-05
874	0.0001295
886	0.0002146
898	0.0003071
910	0.0004218
922	0.0005587
934	0.0011766
946	0.0015133
958	0.0008473
970	0.0004884
982	0.000666
994	0.0006327
1006	0.0004921
1018	0.0004773
1030	0.0002849
1042	0.0002701
1054	0.0005143
1066	0.0005402
1078	0.0004329
1090	0.0005661
1102	0.0006623
1114	0.0004884
1126	0.0005328
1138	0.0010397
1150	0.0025345
1162	0.0031931
1174	0.0020461
1186	0.0015577
1198	0.0022755
1210	0.0041477
1222	0.0044437
1234	0.0025937
1246	0.0016206
1258	0.0009842
1270	0.0006142
1282	0.0006179
1294	0.0006845
1306	0.0009139
1318	0.0018278
1330	0.0026603
1342	0.0020091
1354	0.0018352
1366	0.0036334
1378	0.003404
1390	0.0021793
1402	0.0027306
1414	0.002294
1426	0.0029637
1438	0.0028046
1450	0.0023643
1462	0.0027158
1474	0.0033744
1486	0.0028638
1498	0.00111
1510	0.000481
1522	0.0003256
1534	0.0002405
1546	0.000185
1558	0.0001665
1570	0.0001813
1582	0.0002146
1594	0.000185
1606	0.0001628
1618	0.0002257
1630	0.0003367
1642	0.000481
1654	0.0007252
1666	0.0010101
1678	0.0013542
1690	0.0020239
1702	0.003034
1714	0.0065638
1726	0.025049
1738	0.0323417
1750	0.0098531
1762	0.0036038
1774	0.0018352
1786	0.0010915
1798	0.000814
1810	0.0006179
1822	0.0004107
1834	0.0002331
1846	0.000185
1858	0.0001628
1870	0.0001332
1882	0.000111
1894	0.0001184
1906	0.0001369
1918	0.0001073
1930	7.03e-05
1942	5.55e-05
1954	6.29e-05
1966	6.29e-05
1978	3.7e-05
1990	4.44e-05
2002	5.92e-05
2014	3.33e-05
2026	2.96e-05
2038	4.81e-05
2050	6.29e-05
2062	6.66e-05
2074	7.4e-05
2086	5.55e-05
2098	2.22e-05
2110	1.11e-05
2122	1.85e-05
2134	3.7e-05
2146	5.55e-05
2158	5.18e-05
2170	4.07e-05
2182	2.59e-05
2194	3.7e-05
2206	1.85e-05
2218	1.11e-05
2230	7.4e-06
2242	1.48e-05
2254	2.22e-05
2266	4.07e-05
2278	3.7e-05
2290	4.07e-05
2302	4.07e-05
2314	4.81e-05
2326	3.33e-05
2338	1.85e-05
2350	3.7e-05
2362	2.22e-05
2374	1.48e-05
2386	3.7e-05
2398	5.18e-05
2410	3.33e-05
2422	1.85e-05
2434	1.85e-05
2446	4.44e-05
2458	4.07e-05
2470	4.44e-05
2482	2.96e-05
2494	3.33e-05
2506	7.4e-06
2518	2.96e-05
2530	1.48e-05
2542	4.07e-05
2554	2.22e-05
2566	4.81e-05
2578	9.25e-05
2590	0.0001258
2602	0.0001628
2614	0.0001554
2626	0.0001887
2638	0.0002035
2650	0.0002257
2662	0.0002035
2674	0.0002072
2686	0.0001998
2698	0.0001961
2710	0.0002627
2722	0.0003108
2734	0.0003515
2746	0.0003219
2758	0.0003515
2770	0.00037
2782	0.0004218
2794	0.0005328
2806	0.0006845
2818	0.0010508
2830	0.0017871
2842	0.0029563
2854	0.004736
2866	0.0070596
2878	0.0097458
2890	0.0095164
2902	0.0094794
2914	0.0103008
2926	0.0109076
2938	0.013912
2950	0.0217412
2962	0.0354127
2974	0.0301883
2986	0.0113849
2998	0.0032745
3010	0.0014652
3022	0.0010064
3034	0.0007437
3046	0.0005291
3058	0.0004329
3070	0.00037
3082	0.0003478
3094	0.0003441
3106	0.0003182
3118	0.0002664
3130	0.0002479
3142	0.0002368
3154	0.0002183
3166	0.0002405
3178	0.0002294
3190	0.0002331
3202	0.000259
3214	0.0002109
3226	0.0001924
3238	0.0001739
3250	0.0001221
3262	7.4e-05
3274	7.03e-05
3286	7.03e-05
3298	7.03e-05
3310	4.44e-05
3322	8.14e-05
3334	6.29e-05
3346	5.92e-05
3358	6.66e-05
3370	9.62e-05
3382	0.0001332
3394	0.0001924
3406	0.000148
3418	0.0001739
3430	0.0002775
3442	0.0004588
3454	0.000592
3466	0.0003552
3478	0.0001739
3490	0.0001332
3502	0.0001073
3514	4.07e-05
3526	2.96e-05
3538	7.4e-06
3550	4.44e-05
3562	4.44e-05
3574	3.7e-06
3586	7.4e-06
3598	2.59e-05
3610	2.22e-05
3622	5.18e-05
3634	4.07e-05
3646	5.55e-05
3658	2.59e-05
3670	1.85e-05
3682	6.66e-05
3694	3.7e-06
3706	3.33e-05
3718	6.29e-05
3730	3.7e-05
3742	1.48e-05
3754	2.22e-05
3766	2.22e-05
3778	4.81e-05
3790	5.92e-05
3802	2.22e-05
3814	5.18e-05
3826	3.33e-05
3838	5.18e-05
