Infrared Spectrum: 4-t-Butylcyclohexanol
Formula: C 10 H 20 O
CAS: 98-52-2
State: gas
Instrument: HP-GC/MS/IRD
Origin: NIST Mass Spectrometry Data Center
1/CM	ABSORBANCE
550	0.0006
562	0.000414
574	0.000912
586	0.000696
598	0.000318
610	0.000135
622	0.000114
634	0.000105
646	0.000129
658	0.000207
670	6.6e-05
682	9e-05
694	0.000132
706	9e-05
718	0.000117
730	6e-05
742	0.000174
754	0.000291
766	0.000123
778	0.000126
790	0.000222
802	0.00015
814	7.8e-05
826	1.2e-05
838	0.000117
850	0.000174
862	0.000294
874	0.000297
886	0.000393
898	0.000735
910	0.000729
922	0.000654
934	0.000519
946	0.000672
958	0.001098
970	0.001449
982	0.001872
994	0.001248
1006	0.001227
1018	0.001605
1030	0.002745
1042	0.004563
1054	0.011625
1066	0.017451
1078	0.006822
1090	0.002007
1102	0.00117
1114	0.001095
1126	0.000969
1138	0.000795
1150	0.00081
1162	0.001041
1174	0.001665
1186	0.001764
1198	0.001626
1210	0.001803
1222	0.002307
1234	0.002772
1246	0.002205
1258	0.002238
1270	0.001845
1282	0.001284
1294	0.001029
1306	0.001077
1318	0.001095
1330	0.00102
1342	0.001344
1354	0.002823
1366	0.00543
1378	0.004617
1390	0.003189
1402	0.002613
1414	0.001053
1426	0.00084
1438	0.001479
1450	0.002763
1462	0.003093
1474	0.002919
1486	0.002241
1498	0.000885
1510	0.000378
1522	0.00027
1534	0.000195
1546	0.000159
1558	0.000111
1570	9.3e-05
1582	9.9e-05
1594	6e-05
1606	4.5e-05
1618	3.6e-05
1630	6.3e-05
1642	7.8e-05
1654	5.4e-05
1666	7.2e-05
1678	3.6e-05
1690	4.2e-05
1702	3.9e-05
1714	6.9e-05
1726	4.2e-05
1738	3.3e-05
1750	5.1e-05
1762	3e-05
1774	3e-05
1786	4.2e-05
1798	1.8e-05
1810	4.2e-05
1822	3.6e-05
1834	3e-05
1846	1.8e-05
1858	3.9e-05
1870	1.2e-05
1882	1.8e-05
1894	0
1906	3.9e-05
1918	2.7e-05
1930	4.2e-05
1942	4.8e-05
1954	3.9e-05
1966	4.5e-05
1978	3e-05
1990	3.6e-05
2002	3e-05
2014	2.4e-05
2026	6.3e-05
2038	7.5e-05
2050	6e-05
2062	2.7e-05
2074	1.8e-05
2086	4.2e-05
2098	6.3e-05
2110	5.7e-05
2122	7.8e-05
2134	3.3e-05
2146	2.4e-05
2158	6e-05
2170	2.4e-05
2182	1.5e-05
2194	3.9e-05
2206	3.6e-05
2218	6.3e-05
2230	4.8e-05
2242	3e-05
2254	3.3e-05
2266	4.2e-05
2278	2.7e-05
2290	3e-05
2302	4.2e-05
2314	3e-05
2326	0
2338	3.3e-05
2350	4.2e-05
2362	3.3e-05
2374	4.5e-05
2386	7.2e-05
2398	6.6e-05
2410	7.2e-05
2422	4.5e-05
2434	4.5e-05
2446	3.6e-05
2458	1.2e-05
2470	1.5e-05
2482	4.5e-05
2494	6.6e-05
2506	5.7e-05
2518	6.3e-05
2530	9e-05
2542	7.2e-05
2554	5.4e-05
2566	9.3e-05
2578	0.00012
2590	0.000129
2602	0.000183
2614	0.000267
2626	0.000309
2638	0.000309
2650	0.000333
2662	0.000312
2674	0.000342
2686	0.00036
2698	0.000342
2710	0.000384
2722	0.000441
2734	0.000435
2746	0.000465
2758	0.000519
2770	0.000507
2782	0.000603
2794	0.000714
2806	0.000858
2818	0.001167
2830	0.0018
2842	0.003747
2854	0.008691
2866	0.01329
2878	0.011745
2890	0.008706
2902	0.009459
2914	0.012915
2926	0.018714
2938	0.024852
2950	0.028896
2962	0.029343
2974	0.019404
2986	0.007464
2998	0.002265
3010	0.00111
3022	0.000741
3034	0.000519
3046	0.000339
3058	0.000294
3070	0.000225
3082	0.000246
3094	0.000255
3106	0.000213
3118	0.000225
3130	0.000225
3142	0.000252
3154	0.000258
3166	0.000258
3178	0.000231
3190	0.000189
3202	0.000201
3214	0.000174
3226	0.000138
3238	0.000129
3250	7.2e-05
3262	0.000117
3274	1.2e-05
3286	6e-05
3298	1.5e-05
3310	4.5e-05
3322	6.6e-05
3334	6.9e-05
3346	5.1e-05
3358	7.5e-05
3370	6.6e-05
3382	6.6e-05
3394	6.3e-05
3406	8.7e-05
3418	8.7e-05
3430	7.8e-05
3442	8.4e-05
3454	6e-05
3466	5.4e-05
3478	5.4e-05
3490	9.9e-05
3502	1.2e-05
3514	5.1e-05
3526	3e-05
3538	5.4e-05
3550	5.1e-05
3562	0.000117
3574	5.7e-05
3586	9.3e-05
3598	7.5e-05
3610	0.000195
3622	0.000282
3634	0.000711
3646	0.001932
3658	0.001626
3670	0.000378
3682	0.00015
3694	0.000114
3706	0.000156
3718	0.000102
3730	7.5e-05
3742	7.5e-05
3754	0.000111
3766	7.5e-05
3778	0.000186
3790	0.000114
3802	0.000177
3814	0.000156
3826	0.000147
3838	0.000147
