Infrared Spectrum: Benzenearsonic acid, 4-amino
Formula: C6 H8 As N O3
CAS: 98-50-0
State: SOLID (SPLIT MULL)
Class: COBLENTZ II
Instrument: BECKMAN IR-9 (GRATING)
Instrument parameters: ORDER CHANGES: 670, 1200, 2000 CM^-^1
Sampling: TRANSMISSION
Resolution: 2
Origin: DOW CHEMICAL COMPANY
1/CM	TRANSMITTANCE
3792	0.7557
3783	0.7569
3774	0.7588
3765	0.7621
3756	0.7658
3747	0.7693
3738	0.7719
3729	0.7746
3720	0.7778
3711	0.7812
3702	0.7847
3693	0.7878
3684	0.7907
3675	0.7928
3666	0.7926
3657	0.7936
3648	0.7985
3639	0.8011
3630	0.8026
3621	0.8037
3612	0.8048
3603	0.8056
3594	0.8037
3585	0.7985
3576	0.8051
3567	0.8104
3558	0.8125
3549	0.8135
3540	0.8141
3531	0.8146
3522	0.8151
3513	0.8145
3504	0.8134
3495	0.8103
3486	0.8067
3477	0.8036
3468	0.8015
3459	0.8001
3450	0.7994
3441	0.7993
3432	0.799
3423	0.778
3414	0.7593
3405	0.7576
3396	0.7636
3387	0.7626
3378	0.7565
3369	0.7606
3360	0.7626
3351	0.7612
3342	0.7541
3333	0.744
3324	0.7433
3315	0.7499
3306	0.7601
3297	0.7728
3288	0.783
3279	0.7871
3270	0.7847
3261	0.7737
3252	0.7601
3243	0.7453
3234	0.7269
3225	0.7103
3216	0.7047
3207	0.7056
3198	0.7071
3189	0.7084
3180	0.7093
3171	0.7104
3162	0.7082
3153	0.7037
3144	0.6993
3135	0.6953
3126	0.6897
3117	0.6815
3108	0.6725
3099	0.6661
3090	0.6551
3081	0.6326
3072	0.6254
3063	0.6022
3054	0.5838
3045	0.5759
3036	0.5624
3027	0.5397
3018	0.5371
3009	0.525
3000	0.5004
2991	0.4841
2982	0.4673
2973	0.4486
2964	0.4281
2955	0.4102
2946	0.3929
2937	0.3734
2928	0.3502
2919	0.3273
2910	0.3055
2901	0.2913
2892	0.2818
2883	0.2772
2874	0.2763
2865	0.2769
2856	0.2768
2847	0.2716
2838	0.2622
2829	0.2516
2820	0.2513
2811	0.2498
2802	0.2479
2793	0.2454
2784	0.2408
2775	0.2303
2766	0.2222
2757	0.2216
2748	0.2216
2739	0.2208
2730	0.2198
2721	0.2184
2712	0.2143
2703	0.2084
2694	0.2018
2685	0.1923
2676	0.1823
2667	0.1729
2658	0.1653
2649	0.1582
2640	0.152
2631	0.1461
2622	0.1407
2613	0.1346
2604	0.1294
2595	0.1267
2586	0.1254
2577	0.124
2568	0.1236
2559	0.1235
2550	0.1237
2541	0.1242
2532	0.1259
2523	0.1287
2514	0.133
2505	0.1369
2496	0.1409
2487	0.1454
2478	0.1498
2469	0.1521
2460	0.1518
2451	0.151
2442	0.1476
2433	0.1427
2424	0.1396
2415	0.1396
2406	0.1409
2397	0.1426
2388	0.1468
2379	0.1523
2370	0.1584
2361	0.1643
2352	0.1702
2343	0.1764
2334	0.1832
2325	0.1926
2316	0.2032
2307	0.2124
2298	0.221
2289	0.2295
2280	0.2391
2271	0.2525
2262	0.2724
2253	0.2882
2244	0.2974
2235	0.2977
2226	0.2868
2217	0.2664
2208	0.2474
2199	0.2372
2190	0.2378
2181	0.2394
2172	0.2359
2163	0.2239
2154	0.2187
2145	0.2261
2136	0.244
2127	0.2644
2118	0.2861
2109	0.3066
2100	0.3308
2091	0.3455
2082	0.3528
2073	0.3693
2064	0.3859
2055	0.3991
2046	0.4115
2037	0.4216
2028	0.4302
2019	0.4214
2010	0.4228
2001	0.437
1992	0.4495
1983	0.4596
1974	0.47
1965	0.4796
1956	0.4893
1947	0.4995
1938	0.5044
1929	0.4974
1920	0.51
1911	0.5239
1902	0.5351
1893	0.5462
1884	0.5581
1875	0.5668
1866	0.5724
1857	0.5758
1848	0.5778
1839	0.576
1830	0.561
1821	0.5487
1812	0.5568
1803	0.5791
1794	0.5931
1785	0.5974
1776	0.6028
1767	0.6076
1758	0.6042
1749	0.5875
1740	0.5759
1731	0.5868
1722	0.596
1713	0.6023
1704	0.6054
1695	0.6064
1686	0.5981
1677	0.5864
1668	0.5764
1659	0.5582
1650	0.5188
1641	0.4917
1632	0.4316
1623	0.4133
1614	0.4244
1605	0.488
1596	0.2535
1587	0.2314
1578	0.3393
1569	0.3406
1560	0.4981
1551	0.5649
1542	0.6493
1533	0.6804
1524	0.7182
1515	0.7512
1506	0.643
1497	0.4436
1488	0.7058
1479	0.7195
1470	0.7392
1461	0.7733
1452	0.8006
1443	0.8148
1434	0.7911
1425	0.8008
1416	0.4899
1407	0.6819
1398	0.8031
1389	0.8178
1380	0.8225
1371	0.8144
1362	0.8067
1353	0.7694
1344	0.7246
1335	0.7264
1326	0.5962
1317	0.7047
1308	0.6783
1299	0.655
1290	0.6152
1281	0.729
1272	0.7322
1263	0.6924
1254	0.6273
1245	0.5068
1236	0.4484
1227	0.4322
1218	0.5368
1209	0.6885
1200	0.7253
1191	0.7072
1182	0.5365
1173	0.6851
1164	0.7518
1155	0.7665
1146	0.7287
1137	0.7504
1128	0.7887
1119	0.814
1110	0.8218
1101	0.3402
1092	0.5614
1083	0.7968
1074	0.814
1065	0.8425
1056	0.8508
1047	0.8395
1038	0.8406
1029	0.852
1020	0.6647
1011	0.8509
1002	0.8625
993	0.8639
984	0.8493
975	0.8198
966	0.8228
957	0.8071
948	0.7705
939	0.7315
930	0.6625
921	0.5459
912	0.3948
903	0.3082
894	0.1828
885	0.1164
876	0.1349
867	0.0554
858	0.0362
849	0.027
840	0.0569
831	0.1251
822	0.2165
813	0.5014
804	0.5772
795	0.6401
786	0.6258
777	0.5982
768	0.583
759	0.4762
750	0.1005
741	0.2745
732	0.6001
723	0.6761
714	0.7535
705	0.8142
696	0.8447
687	0.8648
678	0.8762
669	0.8865
660	0.8925
651	0.8964
642	0.8928
633	0.6892
624	0.8349
615	0.5876
606	0.5683
597	0.8821
588	0.9103
579	0.9133
570	0.9138
561	0.9108
552	0.9041
543	0.8902
534	0.8497
525	0.6522
516	0.1479
507	0.4886
498	0.8071
489	0.819
480	0.8025
471	0.77
462	0.6668
453	0.5349
444	0.4095
435	0.402
426	0.392
417	0.3784
408	0.4178
