Infrared Spectrum: 4-Chlorobenzenesulfonamide
Formula: C 6 H 6 Cl N O 2 S
CAS: 98-64-6
State: gas
Instrument: HP-GC/MS/IRD
Origin: NIST Mass Spectrometry Data Center
1/CM	ABSORBANCE
550	0.014522
562	0.0143206
574	0.0100594
586	0.0108968
598	0.022366
610	0.0491204
622	0.043937
634	0.0169494
646	0.0099746
658	0.008215
670	0.0075684
682	0.0072822
694	0.0076108
706	0.0084906
718	0.0088404
730	0.0093598
742	0.0249842
754	0.0322982
766	0.0127942
778	0.0109392
790	0.0115222
802	0.0155608
814	0.026871
826	0.0402588
838	0.0373014
850	0.0452408
862	0.045739
874	0.0266484
886	0.0129638
898	0.0073564
910	0.004452
922	0.0029362
934	0.0019398
946	0.0013886
958	0.0007632
970	0.0003604
982	0.0002438
994	0.0006148
1006	0.0048336
1018	0.0128472
1030	0.0022684
1042	0.0011766
1054	0.001802
1066	0.006625
1078	0.0232564
1090	0.0450288
1102	0.0338776
1114	0.0106106
1126	0.0036358
1138	0.0035722
1150	0.008798
1162	0.0347044
1174	0.103414
1186	0.0617344
1198	0.0151686
1210	0.0059042
1222	0.0044096
1234	0.0037948
1246	0.0031164
1258	0.003604
1270	0.0038796
1282	0.0027984
1294	0.0022684
1306	0.0020352
1318	0.0024698
1330	0.0042082
1342	0.00848
1354	0.0188998
1366	0.0419442
1378	0.0775496
1390	0.077009
1402	0.0359446
1414	0.0107696
1426	0.0043142
1438	0.0026818
1450	0.0025334
1462	0.0059042
1474	0.020405
1486	0.0152746
1498	0.0053106
1510	0.003445
1522	0.0048124
1534	0.0088934
1546	0.0165042
1558	0.017543
1570	0.0138648
1582	0.0177444
1594	0.014734
1606	0.002703
1618	0.00106
1630	0.000954
1642	0.0015052
1654	0.0014098
1666	0.000636
1678	0.000212
1690	0.0001802
1702	0.0002226
1714	0.0002014
1726	0.0001272
1738	2.12e-05
1750	4.24e-05
1762	0.0003498
1774	0.0009434
1786	0.0007844
1798	0.0001272
1810	2.12e-05
1822	0.0001484
1834	0.0003922
1846	0.000371
1858	0.0001908
1870	0.0001484
1882	0.0003604
1894	0.0009222
1906	0.0014734
1918	0.0012826
1930	0.000583
1942	0.0002544
1954	0.0001908
1966	0.0001908
1978	0.0001908
1990	0.0001378
2002	0.000159
2014	0.0001802
2026	0.000212
2038	0.0002332
2050	0.0002332
2062	0.0002438
2074	0.0002544
2086	0.000318
2098	0.0003816
2110	0.0004452
2122	0.0003816
2134	0.0003392
2146	0.000318
2158	0.0002862
2170	0.0002968
2182	0.0003392
2194	0.0003498
2206	0.0002862
2218	0.0002862
2230	0.0002968
2242	0.0003816
2254	0.0004664
2266	0.000689
2278	0.0007632
2290	0.0006572
2302	0.0004876
2314	0.0004346
2326	0.0005088
2338	0.0005936
2350	0.0004982
2362	0.0004558
2374	0.0004346
2386	0.0004876
2398	0.00053
2410	0.00053
2422	0.0003922
2434	0.0003604
2446	0.000424
2458	0.0004028
2470	0.0004558
2482	0.0004558
2494	0.0004346
2506	0.000477
2518	0.000636
2530	0.0009116
2542	0.001113
2554	0.0010812
2566	0.0008798
2578	0.0007632
2590	0.0006784
2602	0.000636
2614	0.0005724
2626	0.000477
2638	0.0004452
2650	0.0004558
2662	0.0005512
2674	0.0005194
2686	0.0004876
2698	0.0003816
2710	0.0002756
2722	0.0002862
2734	0.0003498
2746	0.0003922
2758	0.0004452
2770	0.0003922
2782	0.0002862
2794	0.000265
2806	0.000265
2818	0.0002544
2830	0.0003392
2842	0.000318
2854	0.0002862
2866	0.0002968
2878	0.0002862
2890	0.0002544
2902	0.0002332
2914	0.0002226
2926	0.0002226
2938	0.0002438
2950	0.0002544
2962	0.0002862
2974	0.0002438
2986	0.0002438
2998	0.0003392
3010	0.0003604
3022	0.0004028
3034	0.0005194
3046	0.000636
3058	0.0007102
3070	0.0013144
3082	0.0020246
3094	0.0012402
3106	0.0008268
3118	0.0005724
3130	0.000477
3142	0.0005088
3154	0.0003922
3166	0.0002862
3178	0.000265
3190	0.0003074
3202	0.0002862
3214	0.0003816
3226	0.0005088
3238	0.0005088
3250	0.0006466
3262	0.0005936
3274	0.0006572
3286	0.0006996
3298	0.0007208
3310	0.0008056
3322	0.0009752
3334	0.0016748
3346	0.0037948
3358	0.0096884
3370	0.0166314
3382	0.0130168
3394	0.006095
3406	0.0026818
3418	0.0017172
3430	0.0019822
3442	0.0034344
3454	0.0064236
3466	0.009699
3478	0.0100912
3490	0.0076744
3502	0.004505
3514	0.0022684
3526	0.0012402
3538	0.000795
3550	0.0005936
3562	0.000424
3574	0.0003816
3586	0.0003074
3598	0.0002756
3610	0.0003604
3622	0.0004346
3634	0.0003498
3646	0.0003286
3658	0.0003074
3670	0.0002756
3682	0.0001908
3694	0.0002226
3706	0.000265
3718	0.0003922
3730	0.0002332
3742	9.54e-05
3754	9.54e-05
3766	4.24e-05
3778	0
3790	6.36e-05
3802	0.000106
3814	7.42e-05
3826	3.18e-05
3838	6.36e-05
