Infrared Spectrum: p-Methoxybenzenesulfonyl chloride
Formula: C7 H7 Cl O3 S
CAS: 98-68-0
State: SOLUTION (10% CCl4 FOR 3800-1330, 10% CS2 FOR 1330-400 CM^-^1)
Class: COBLENTZ III
Instrument: DOW KBr FOREPRISM-GRATING
Instrument parameters: BLAZED AT 3.5, 12.0, 20.0 MICRON AND CHANGED AT 5.0, 7.5, 14.9 MICRON
Sampling: TRANSMISSION
Path length: 0.011 CM, 0.010 CM
Resolution: 2
Origin: DOW CHEMICAL COMPANY
1/CM	TRANSMITTANCE
3796	0.9284
3787	0.9294
3778	0.93
3769	0.9309
3760	0.9316
3751	0.9309
3742	0.9297
3733	0.9266
3724	0.9234
3715	0.9203
3706	0.9213
3697	0.9211
3688	0.9199
3679	0.9187
3670	0.9202
3661	0.9194
3652	0.9196
3643	0.9195
3634	0.9193
3625	0.9205
3616	0.9205
3607	0.9198
3598	0.9177
3589	0.9149
3580	0.9065
3571	0.9042
3562	0.906
3553	0.9062
3544	0.9053
3535	0.9037
3526	0.8995
3517	0.8977
3508	0.8952
3499	0.8935
3490	0.8919
3481	0.8902
3472	0.8886
3463	0.8869
3454	0.8853
3445	0.8837
3436	0.882
3427	0.8804
3418	0.8788
3409	0.8778
3400	0.8769
3391	0.8766
3382	0.8767
3373	0.8769
3364	0.8775
3355	0.8784
3346	0.8795
3337	0.8817
3328	0.8812
3319	0.8818
3310	0.8836
3301	0.8829
3292	0.8834
3283	0.885
3274	0.8855
3265	0.8849
3256	0.8833
3247	0.8839
3238	0.8835
3229	0.883
3220	0.8825
3211	0.8808
3202	0.8777
3193	0.8747
3184	0.8675
3175	0.8612
3166	0.8563
3157	0.8538
3148	0.8535
3139	0.8566
3130	0.8562
3121	0.8488
3112	0.8367
3103	0.8153
3094	0.8323
3085	0.8008
3076	0.791
3067	0.8163
3058	0.8273
3049	0.8367
3040	0.8485
3031	0.8276
3022	0.7464
3013	0.7024
3004	0.7899
2995	0.8041
2986	0.7743
2977	0.6652
2968	0.6282
2959	0.6988
2950	0.6467
2941	0.6358
2932	0.7107
2923	0.7755
2914	0.754
2905	0.7337
2896	0.7473
2887	0.8189
2878	0.8369
2869	0.8436
2860	0.8429
2851	0.7792
2842	0.5708
2833	0.8101
2824	0.8433
2815	0.8565
2806	0.861
2797	0.8628
2788	0.8581
2779	0.8655
2770	0.8675
2761	0.862
2752	0.8532
2743	0.8587
2734	0.8649
2725	0.8701
2716	0.8752
2707	0.8797
2698	0.8812
2689	0.8815
2680	0.8767
2671	0.8716
2662	0.8718
2653	0.8733
2644	0.8654
2635	0.8529
2626	0.853
2617	0.8573
2608	0.8588
2599	0.856
2590	0.8456
2581	0.8103
2572	0.8211
2563	0.8396
2554	0.8612
2545	0.8632
2536	0.8625
2527	0.861
2518	0.8655
2509	0.8765
2500	0.8792
2491	0.8777
2482	0.8811
2473	0.8829
2464	0.8839
2455	0.8835
2446	0.8847
2437	0.883
2428	0.8786
2419	0.8801
2410	0.8825
2401	0.8793
2392	0.8623
2383	0.8678
2374	0.8781
2365	0.8864
2356	0.8919
2347	0.8983
2338	0.8897
2329	0.8884
2320	0.887
2311	0.8801
2302	0.8747
2293	0.8719
2284	0.8681
2275	0.8653
2266	0.8736
2257	0.8751
2248	0.8786
2239	0.8819
2230	0.8831
2221	0.8838
2212	0.8843
2203	0.8834
2194	0.8811
2185	0.877
2176	0.8744
2167	0.8675
2158	0.8629
2149	0.8695
2140	0.8742
2131	0.8755
2122	0.8747
2113	0.8761
2104	0.8773
2095	0.8715
2086	0.8714
2077	0.8672
2068	0.8276
2059	0.8415
2050	0.8459
2041	0.8521
2032	0.8662
2023	0.8712
2014	0.8722
2005	0.8727
1996	0.8719
1987	0.8828
1978	0.8702
1969	0.8674
1960	0.9076
1951	0.8905
1942	0.8885
1933	0.8692
1924	0.857
1915	0.867
1906	0.8255
1897	0.8428
1888	0.844
1879	0.8654
1870	0.8831
1861	0.8844
1852	0.8848
1843	0.8853
1834	0.8872
1825	0.8924
1816	0.8931
1807	0.8651
1798	0.8792
1789	0.8876
1780	0.8925
1771	0.8731
1762	0.8622
1753	0.8743
1744	0.8654
1735	0.876
1726	0.8881
1717	0.8934
1708	0.8867
1699	0.8852
1690	0.8824
1681	0.8808
1672	0.8699
1663	0.8629
1654	0.858
1645	0.8253
1636	0.8276
1627	0.8165
1618	0.7517
1609	0.5661
1600	0.0342
1591	0.0892
1582	0.0782
1573	0.3248
1564	0.5457
1555	0.6573
1546	0.7121
1537	0.7291
1528	0.7485
1519	0.7376
1510	0.7051
1501	0.1751
1492	0.381
1483	0.6541
1474	0.7066
1465	0.3804
1456	0.5216
1447	0.6958
1438	0.6741
1429	0.7749
1420	0.4917
1411	0.6621
1402	0.6865
1393	0.2904
1384	0.022
1375	0.0381
1366	0.4017
1357	0.6412
1348	0.7299
1339	0.6918
1330	0.6632
1321	0.2877
1312	0.3904
1303	0.3948
1294	0.6163
1285	0.5976
1276	0.1709
1267	0.0212
1258	0.2757
1249	0.6237
1240	0.7377
1231	0.7279
1222	0.7383
1213	0.727
1204	0.6119
1195	0.4942
1186	0.0703
1177	0.2807
1168	0.016
1159	0.3409
1150	0.4619
1141	0.4797
1132	0.6814
1123	0.7144
1114	0.5869
1105	0.7435
1096	0.6158
1087	0.2547
1078	0.5543
1069	0.7181
1060	0.8131
1051	0.828
1042	0.7987
1033	0.4091
1024	0.3371
1015	0.6727
1006	0.7809
997	0.857
988	0.8915
979	0.903
970	0.9074
961	0.8977
952	0.8966
943	0.9011
934	0.9065
925	0.9171
916	0.9202
907	0.9208
898	0.9222
889	0.9161
880	0.9162
871	0.8952
862	0.8733
853	0.8507
844	0.631
835	0.0378
826	0.5066
817	0.7694
808	0.4684
799	0.5274
790	0.8813
781	0.9295
772	0.9469
763	0.9506
754	0.941
745	0.9345
736	0.9303
727	0.9283
718	0.9132
709	0.8097
700	0.9247
691	0.9256
682	0.8867
673	0.8347
664	0.3095
655	0.2794
646	0.7796
637	0.8377
628	0.7167
619	0.8114
610	0.8213
601	0.7536
592	0.5734
583	0.2585
574	0.0133
565	0.0237
556	0.4475
547	0.104
538	0.1718
529	0.614
520	0.7161
511	0.6171
502	0.5959
493	0.7642
484	0.6009
475	0.7757
466	0.8155
457	0.8141
448	0.8018
439	0.781
430	0.7545
421	0.703
412	0.5407
403	0.3459
394	0.2589
