Infrared Spectrum: 4-t-Butylbenzoic acid
Formula: C 11 H 14 O 2
CAS: 98-73-7
State: gas
Instrument: HP-GC/MS/IRD
Origin: NIST Mass Spectrometry Data Center
1/CM	ABSORBANCE
550	0.0012054
562	0.0028476
574	0.0039564
586	0.002037
598	0.0008274
610	0.0004284
622	0.0003612
634	0.000462
646	0.0006132
658	0.0014028
670	0.005607
682	0.003192
694	0.0019866
706	0.003801
718	0.003612
730	0.0015036
742	0.0005124
754	0.0006804
766	0.0024612
778	0.0039396
790	0.0017052
802	0.0005628
814	0.000252
826	0.00042
838	0.0013608
850	0.0016842
862	0.000924
874	0.0001512
886	0
898	0.0001344
910	0.0001848
922	0.0001764
934	0.000126
946	7.98e-05
958	5.88e-05
970	7.56e-05
982	9.24e-05
994	0.0002982
1006	0.0016758
1018	0.0041328
1030	0.0015666
1042	0.0013146
1054	0.002436
1066	0.0071736
1078	0.0165606
1090	0.0107142
1102	0.0100506
1114	0.0079674
1126	0.0029736
1138	0.0021378
1150	0.0026712
1162	0.0058632
1174	0.0167034
1186	0.0114996
1198	0.0050862
1210	0.0031542
1222	0.0021336
1234	0.0025326
1246	0.0026754
1258	0.0035826
1270	0.0050736
1282	0.0043554
1294	0.0037632
1306	0.0031962
1318	0.0027846
1330	0.0046662
1342	0.0064974
1354	0.0060774
1366	0.0082194
1378	0.0046662
1390	0.0024906
1402	0.002982
1414	0.0023814
1426	0.001092
1438	0.0007056
1450	0.0009744
1462	0.0014112
1474	0.0018564
1486	0.0017346
1498	0.0009198
1510	0.0006888
1522	0.0003822
1534	0.0002688
1546	0.0002562
1558	0.0004578
1570	0.000903
1582	0.0007224
1594	0.0015624
1606	0.004872
1618	0.0037254
1630	0.0012894
1642	0.0005376
1654	0.0003024
1666	0.0003822
1678	0.0006048
1690	0.0008904
1702	0.0011718
1714	0.0016548
1726	0.0026502
1738	0.0073668
1750	0.025704
1762	0.0409122
1774	0.012033
1786	0.0032424
1798	0.0016716
1810	0.0013776
1822	0.001029
1834	0.0005502
1846	0.0002898
1858	0.0002436
1870	0.0001932
1882	0.0001974
1894	0.0001554
1906	0.0002604
1918	0.000378
1930	0.0003822
1942	0.0003192
1954	0.0002478
1966	0.000105
1978	7.56e-05
1990	4.2e-05
2002	5.46e-05
2014	5.04e-05
2026	5.88e-05
2038	4.62e-05
2050	1.68e-05
2062	1.26e-05
2074	2.52e-05
2086	3.78e-05
2098	3.78e-05
2110	4.2e-06
2122	4.2e-05
2134	6.3e-05
2146	0.000105
2158	0.000105
2170	7.14e-05
2182	5.46e-05
2194	5.04e-05
2206	6.3e-05
2218	2.52e-05
2230	8.4e-06
2242	3.36e-05
2254	3.36e-05
2266	5.46e-05
2278	5.04e-05
2290	5.04e-05
2302	4.2e-05
2314	8.4e-05
2326	7.98e-05
2338	7.56e-05
2350	0.0001134
2362	8.4e-05
2374	0.000105
2386	0.0001302
2398	0.0001302
2410	0.0001092
2422	0.0001092
2434	7.56e-05
2446	7.98e-05
2458	6.72e-05
2470	7.98e-05
2482	4.62e-05
2494	8.82e-05
2506	5.04e-05
2518	7.56e-05
2530	0.0001008
2542	7.98e-05
2554	8.4e-05
2566	0.0001134
2578	0.0001386
2590	0.0001176
2602	8.4e-05
2614	8.82e-05
2626	8.82e-05
2638	6.72e-05
2650	9.66e-05
2662	7.98e-05
2674	9.66e-05
2686	0.0001092
2698	0.000105
2710	0.0001512
2722	0.0001764
2734	0.0001764
2746	0.0001596
2758	0.0001722
2770	0.0002016
2782	0.0002394
2794	0.0002688
2806	0.000315
2818	0.0003486
2830	0.000441
2842	0.0005502
2854	0.0008778
2866	0.0017892
2878	0.0030408
2890	0.003087
2902	0.0031626
2914	0.0040404
2926	0.003948
2938	0.0041286
2950	0.0059934
2962	0.0122556
2974	0.0157542
2986	0.0061698
2998	0.0020412
3010	0.0009072
3022	0.0006048
3034	0.0005754
3046	0.0008568
3058	0.000945
3070	0.0009156
3082	0.0009744
3094	0.0010038
3106	0.0008652
3118	0.0005166
3130	0.0003906
3142	0.0002604
3154	0.0002562
3166	0.0001932
3178	0.0001932
3190	0.000189
3202	0.0002142
3214	0.0002394
3226	0.0002226
3238	0.000168
3250	0.0001344
3262	0.000126
3274	0.0001554
3286	0.0001596
3298	0.0001092
3310	0.0001176
3322	0.0001218
3334	9.24e-05
3346	0.0001134
3358	0.0001176
3370	0.0001134
3382	8.82e-05
3394	7.14e-05
3406	0.000105
3418	7.56e-05
3430	9.24e-05
3442	8.82e-05
3454	0.0001176
3466	0.0001092
3478	0.0001512
3490	0.0003234
3502	0.000378
3514	0.0003864
3526	0.0002226
3538	0.0002058
3550	0.000294
3562	0.0007602
3574	0.0054138
3586	0.0130956
3598	0.0019152
3610	0.0003402
3622	0.0002436
3634	0.0001428
3646	0.0001344
3658	9.66e-05
3670	0.0001428
3682	0.0001008
3694	7.56e-05
3706	3.78e-05
3718	7.56e-05
3730	8.4e-05
3742	1.68e-05
3754	3.36e-05
3766	7.14e-05
3778	9.24e-05
3790	0.0001218
3802	5.04e-05
3814	0.0001176
3826	5.88e-05
3838	2.1e-05
