Infrared Spectrum: p-Nitrobenzenesulfonyl chloride
Formula: C 6 H 4 Cl N O 4 S
CAS: 98-74-8
State: gas
Origin: EPA-IR VAPOR PHASE LIBRARY
1/CM	ABSORBANCE
549.8	0.01801
559.445	0.05376
569.09	0.0761
578.734	0.06249
588.379	0.09834
598.024	0.17039
607.669	0.1143
617.313	0.02912
626.958	0.00923
636.603	0.00429
646.248	0.00379
655.893	0.00529
665.537	0.01128
675.182	0.02029
684.827	0.01899
694.472	0.00946
704.116	0.00437
713.761	0.00464
723.406	0.01992
733.051	0.09684
742.695	0.03552
752.34	0.00872
761.985	0.00316
771.63	0.00196
781.275	0.00194
790.919	0.00239
800.564	0.00465
810.209	0.003
819.854	0.00193
829.498	0.00345
839.143	0.01035
848.788	0.04326
858.433	0.03199
868.078	0.00909
877.722	0.00312
887.367	0.00199
897.012	0.00135
906.657	0.00135
916.301	0.001
925.946	0.0005738
935.591	0.0004919
945.236	0.0009177
954.88	0.00126
964.525	0.00126
974.17	0.00122
983.815	0.00111
993.46	0.00107
1003.1	0.00286
1012.75	0.01302
1022.39	0.00534
1032.04	0.00114
1041.68	0.00129
1051.33	0.000962
1060.97	0.00232
1070.62	0.00771
1080.26	0.02127
1089.91	0.01117
1099.55	0.00607
1109.2	0.00561
1118.84	0.00422
1128.49	0.00379
1138.13	0.00468
1147.78	0.00634
1157.42	0.01264
1167.07	0.03263
1176.71	0.07901
1186.36	0.1027
1196	0.07039
1205.64	0.05695
1215.29	0.02397
1224.93	0.00692
1234.58	0.00413
1244.22	0.00354
1253.87	0.00395
1263.51	0.00561
1273.16	0.00776
1282.8	0.01187
1292.45	0.01492
1302.09	0.02044
1311.74	0.02129
1321.38	0.0172
1331.03	0.02688
1340.67	0.06413
1350.32	0.08334
1359.96	0.06775
1369.61	0.03138
1379.25	0.02096
1388.9	0.03525
1398.54	0.08246
1408.18	0.11092
1417.83	0.05203
1427.47	0.01175
1437.12	0.00552
1446.76	0.0041
1456.41	0.00392
1466.05	0.00512
1475.7	0.01034
1485.34	0.01018
1494.99	0.00858
1504.63	0.00973
1514.28	0.01385
1523.92	0.02277
1533.57	0.04569
1543.21	0.10281
1552.86	0.1194
1562.5	0.05479
1572.15	0.02445
1581.79	0.01931
1591.44	0.01716
1601.08	0.02219
1610.73	0.02083
1620.37	0.01012
1630.01	0.00524
1639.66	0.00401
1649.3	0.00314
1658.95	0.00283
1668.59	0.00263
1678.24	0.00275
1687.88	0.0023
1697.53	0.00147
1707.17	0.0009176
1716.82	0.0008394
1726.46	0.0007265
1736.11	0.0007177
1745.75	0.0005478
1755.4	0.000672
1765.04	0.0007568
1774.69	0.00111
1784.33	0.00198
1793.98	0.00322
1803.62	0.00245
1813.27	0.00171
1822.91	0.00114
1832.55	0.0006195
1842.2	0.0006226
1851.84	0.000523
1861.49	0.0004094
1871.13	0.0005312
1880.78	0.0004547
1890.42	0.0005026
1900.07	0.0006132
1909.71	0.00109
1919.36	0.0019
1929	0.00252
1938.65	0.00198
1948.29	0.0008957
1957.94	0.0006924
1967.58	0.0005304
1977.23	0.000493
1986.87	0.0004551
1996.52	0.000411
2006.16	0.000464
2015.81	0.0005735
2025.45	0.000514
2035.1	0.0005032
2044.74	0.0004093
2054.38	0.0004589
2064.03	0.0004029
2073.67	0.000552
2083.32	0.0004337
2092.96	0.000515
2102.61	0.0005053
2112.25	0.0005257
2121.9	0.0005622
2131.54	0.0005287
2141.19	0.0006151
2150.83	0.0006789
2160.48	0.0007863
2170.12	0.00059
2179.77	0.0004727
2189.41	0.0004577
2199.06	0.0005107
2208.7	0.0006982
2218.35	0.0005087
2227.99	0.0004876
2237.64	0.0005493
2247.28	0.0005402
2256.92	0.0008322
2266.57	0.00107
2276.21	0.00119
2285.86	0.00122
2295.5	0.0008607
2305.15	0.0004627
2314.79	0.0007575
2324.44	0.0007181
2334.08	0.0005963
2343.73	0.0007958
2353.37	0.0008749
2363.02	0.0009516
2372.66	0.00103
2382.31	0.00103
2391.95	0.00104
2401.6	0.0008408
2411.24	0.0007236
2420.89	0.0006631
2430.53	0.0007355
2440.18	0.0007825
2449.82	0.0009503
2459.47	0.0008337
2469.11	0.0007967
2478.75	0.0008208
2488.4	0.0006378
2498.04	0.0006504
2507.69	0.0006887
2517.33	0.0007084
2526.98	0.0005726
2536.62	0.0006034
2546.27	0.0006948
2555.91	0.0007656
2565.56	0.00127
2575.2	0.0015
2584.85	0.00132
2594.49	0.00116
2604.14	0.00103
2613.78	0.0007277
2623.43	0.0006301
2633.07	0.0008381
2642.72	0.00101
2652.36	0.00115
2662.01	0.00156
2671.65	0.00174
2681.29	0.00159
2690.94	0.00192
2700.58	0.00167
2710.23	0.00119
2719.87	0.00108
2729.52	0.0008822
2739.16	0.0009072
2748.81	0.0008939
2758.45	0.00104
2768.1	0.00114
2777.74	0.000777
2787.39	0.00108
2797.03	0.00109
2806.68	0.0009183
2816.32	0.000991
2825.97	0.00104
2835.61	0.00127
2845.26	0.00152
2854.9	0.00151
2864.55	0.00196
2874.19	0.00261
2883.84	0.0031
2893.48	0.00294
2903.12	0.00254
2912.77	0.00203
2922.41	0.00226
2932.06	0.00242
2941.7	0.00232
2951.35	0.00216
2960.99	0.00208
2970.64	0.00206
2980.28	0.00165
2989.93	0.00127
2999.57	0.0013
3009.22	0.00146
3018.86	0.00122
3028.51	0.00145
3038.15	0.00241
3047.8	0.0022
3057.44	0.00146
3067.09	0.00113
3076.73	0.00128
3086.38	0.00153
3096.02	0.00328
3105.67	0.00536
3115.31	0.00367
3124.95	0.00153
3134.6	0.00115
3144.24	0.000866
3153.89	0.0009858
3163.53	0.0007202
3173.18	0.0007225
3182.82	0.0004851
3192.47	0.0007539
3202.11	0.0009565
3211.76	0.000561
3221.4	0.0007663
3231.05	0.0007855
3240.69	0.000702
3250.34	0.0008328
3259.98	0.0003579
3269.63	0.0007762
3279.27	0.0008185
3288.92	0.0007422
3298.56	0.0008428
3308.21	0.0007185
3317.85	0.00108
3327.49	0.00103
3337.14	0.0009456
3346.78	0.00104
3356.43	0.0006338
3366.07	0.0008131
3375.72	0.0009982
3385.36	0.0008421
3395.01	0.0009558
3404.65	0.0006987
3414.3	0.0009493
3423.94	0.0008234
3433.59	0.00113
3443.23	0.0016
3452.88	0.000721
3462.52	0.00113
3472.17	0.000732
3481.81	0.0009792
3491.46	0.0008241
3501.1	0.00109
3510.75	0.0007263
3520.39	0.00124
3530.04	0.0007719
3539.68	0.00102
3549.32	0.00122
3558.97	0.0009628
3568.61	0.00134
3578.26	0.0009866
3587.9	0.00112
3597.55	0.0009154
3607.19	0.00122
3616.84	0.0008666
3626.48	0.00127
3636.13	0.00113
3645.77	0.0009078
3655.42	0.0007264
3665.06	0.00128
3674.71	0.00134
3684.35	0.00113
3694	0.00115
3703.64	0.00125
3713.29	0.00137
3722.93	0.00159
3732.58	0.00124
3742.22	0.00122
3751.86	0.00143
3761.51	0.00155
3771.15	0.0012
3780.8	0.00108
3790.44	0.0008203
3800.09	0.00111
3809.73	0.00105
3819.38	0.00116
3829.02	0.00123
3838.67	0.00145
3848.31	0.00113
3857.96	0.0012
3867.6	0.0007929
3877.25	0.00112
3886.89	0.00144
3896.54	0.00113
3906.18	0.00105
3915.83	0.00127
3925.47	0.00132
3935.12	0.00136
3944.76	0.00128
3954.41	0.00122
3964.05	0.00117
3973.69	0.0009919
3983.34	0.00115
3992.98	0.00105
