Infrared Spectrum: CYCLOPENTANECARBOXYLIC ACID, 3-OXO-
Formula: C6 H8 O3
CAS: 98-78-2
State: LIQUID (NEAT)
Class: COBLENTZ III
Instrument: PERKIN-ELMER 21 (GRATING)
Instrument parameters: FILTER CHANGE AT ABOUT 1090 CM^-^1.
Sampling: TRANSMISSION
Path length: CAPILLARY
Resolution: 2
Origin: SOUTHERN RESEARCH INSTITUTE
1/CM	TRANSMITTANCE
607.615	0.79
615.986	0.7789
624.356	0.7879
632.727	0.789
641.098	0.7822
649.468	0.759
657.839	0.749
666.21	0.75
674.581	0.7957
682.951	0.8243
691.322	0.855
699.693	0.8671
708.063	0.864
716.434	0.86
724.805	0.8505
733.175	0.853
741.546	0.85
749.917	0.8427
758.288	0.8337
766.658	0.8047
775.029	0.802
783.4	0.8008
791.77	0.7948
800.141	0.7744
808.512	0.7577
816.882	0.752
825.253	0.752
833.624	0.758
841.994	0.758
850.365	0.7432
858.736	0.738
867.107	0.7542
875.477	0.776
883.848	0.776
892.219	0.775
900.589	0.7683
908.96	0.7488
917.331	0.7153
925.701	0.7652
934.072	0.776
942.443	0.776
950.814	0.7818
959.184	0.7968
967.555	0.802
975.926	0.8173
984.296	0.8239
992.667	0.7935
1001.04	0.8358
1009.41	0.8932
1017.78	0.9029
1026.15	0.895
1034.52	0.894
1042.89	0.893
1051.26	0.8782
1059.63	0.8592
1068	0.8523
1076.37	0.8431
1084.74	0.839
1093.12	0.8322
1101.49	0.8243
1109.86	0.8037
1118.23	0.7478
1126.6	0.696
1134.97	0.5876
1143.34	0.4728
1151.71	0.4575
1160.08	0.3894
1168.45	0.3473
1176.82	0.342
1185.19	0.3943
1193.56	0.4162
1201.93	0.3756
1210.31	0.3913
1218.68	0.4332
1227.05	0.456
1235.42	0.448
1243.79	0.447
1252.16	0.4642
1260.53	0.5051
1268.9	0.5648
1277.27	0.5898
1285.64	0.6059
1294.01	0.621
1302.38	0.6489
1310.75	0.6673
1319.12	0.7112
1327.49	0.7542
1335.87	0.768
1344.24	0.761
1352.61	0.761
1360.98	0.7695
1369.35	0.778
1377.72	0.7657
1386.09	0.7243
1394.46	0.6775
1402.83	0.5843
1411.2	0.4834
1419.57	0.5172
1427.94	0.5821
1436.31	0.6212
1444.68	0.6616
1453.06	0.7301
1461.43	0.7487
1469.8	0.7363
1478.17	0.8081
1486.54	0.857
1494.91	0.8771
1503.28	0.8779
1511.65	0.885
1520.02	0.8924
1528.39	0.8917
1536.76	0.8843
1545.13	0.883
1553.5	0.8763
1561.87	0.8704
1570.25	0.872
1578.62	0.8663
1586.99	0.859
1595.36	0.857
1603.73	0.8447
1612.1	0.8366
1620.47	0.8139
1628.84	0.7974
1637.21	0.7733
1645.58	0.7503
1653.95	0.7176
1662.32	0.6815
1670.69	0.6509
1679.06	0.5686
1687.43	0.4722
1695.81	0.3658
1704.18	0.1933
1712.55	0.1252
1720.92	0.1151
1729.29	0.1051
1737.66	0.0808
1746.03	0.074
1754.4	0.1064
1762.77	0.2374
1771.14	0.4958
1779.51	0.6939
1787.88	0.7499
1796.25	0.7765
1804.62	0.8036
1813	0.8184
1821.37	0.828
1829.74	0.834
1838.11	0.8394
1846.48	0.8476
1854.85	0.8523
1863.22	0.856
1871.59	0.859
1879.96	0.8632
1888.33	0.865
1896.7	0.866
1905.07	0.869
1913.44	0.87
1921.81	0.872
1930.18	0.874
1938.56	0.876
1946.93	0.88
1955.3	0.88
1963.67	0.878
1972.04	0.8777
1980.41	0.878
1988.78	0.88
1997.15	0.8804
2005.52	0.877
2013.89	0.8766
2022.26	0.8846
2030.63	0.889
2039	0.889
2047.37	0.883
2055.75	0.8814
2064.12	0.883
2072.49	0.884
2080.86	0.882
2089.23	0.884
2097.6	0.884
2105.97	0.881
2114.34	0.883
2122.71	0.887
2131.08	0.8874
2139.45	0.8824
2147.82	0.88
2156.19	0.882
2164.56	0.882
2172.94	0.882
2181.31	0.882
2189.68	0.88
2198.05	0.878
2206.42	0.876
2214.79	0.876
2223.16	0.878
2231.53	0.877
2239.9	0.876
2248.27	0.874
2256.64	0.8728
2265.01	0.8694
2273.38	0.864
2281.75	0.866
2290.12	0.8684
2298.5	0.8634
2306.87	0.8636
2315.24	0.8686
2323.61	0.869
2331.98	0.868
2340.35	0.865
2348.72	0.865
2357.09	0.862
2365.46	0.857
2373.83	0.853
2382.2	0.85
2390.57	0.846
2398.94	0.846
2407.31	0.8434
2415.69	0.8364
2424.06	0.8348
2432.43	0.8304
2440.8	0.8192
2449.17	0.809
2457.54	0.804
2465.91	0.806
2474.28	0.805
2482.65	0.7968
2491.02	0.7888
2499.39	0.7772
2507.76	0.771
2516.13	0.762
2524.5	0.7604
2532.88	0.7544
2541.25	0.745
2549.62	0.7418
2557.99	0.7364
2566.36	0.731
2574.73	0.725
2583.1	0.724
2591.47	0.724
2599.84	0.725
2608.21	0.724
2616.58	0.716
2624.95	0.7148
2633.32	0.709
2641.69	0.706
2650.06	0.7132
2658.44	0.717
2666.81	0.718
2675.18	0.7164
2683.55	0.716
2691.92	0.712
2700.29	0.7122
2708.66	0.722
2717.03	0.7246
2725.4	0.7284
2733.77	0.724
2742.14	0.7134
2750.51	0.707
2758.88	0.706
2767.25	0.7018
2775.63	0.7
2784	0.6962
2792.37	0.695
2800.74	0.6958
2809.11	0.6832
2817.48	0.6658
2825.85	0.6564
2834.22	0.6484
2842.59	0.6334
2850.96	0.6294
2859.33	0.6224
2867.7	0.6092
2876.07	0.5853
2884.44	0.5674
2892.82	0.5559
2901.19	0.535
2909.56	0.5074
2917.93	0.503
2926.3	0.4974
2934.67	0.492
2943.04	0.491
2951.41	0.4824
2959.78	0.478
2968.15	0.4745
2976.52	0.466
2984.89	0.464
2993.26	0.464
3001.63	0.4688
3010	0.482
3018.38	0.4856
3026.75	0.4868
3035.12	0.486
3043.49	0.476
3051.86	0.467
3060.23	0.4656
3068.6	0.4696
3076.97	0.4671
3085.34	0.464
3093.71	0.459
3102.08	0.46
3110.45	0.4666
3118.82	0.464
3127.19	0.465
3135.57	0.466
3143.94	0.467
3152.31	0.469
3160.68	0.469
3169.05	0.467
3177.42	0.469
3185.79	0.472
3194.16	0.4742
3202.53	0.485
3210.9	0.484
3219.27	0.489
3227.64	0.4896
3236.01	0.498
3244.38	0.5036
3252.75	0.5086
3261.13	0.517
3269.5	0.5252
3277.87	0.5296
3286.24	0.5356
3294.61	0.5426
3302.98	0.5602
3311.35	0.5718
3319.72	0.58
3328.09	0.5882
3336.46	0.5942
3344.83	0.6078
3353.2	0.6166
3361.57	0.629
3369.94	0.6432
3378.32	0.6581
3386.69	0.6752
3395.06	0.688
3403.43	0.7006
3411.8	0.7082
3420.17	0.7232
3428.54	0.7348
3436.91	0.7436
3445.28	0.7546
3453.65	0.755
3462.02	0.751
3470.39	0.758
3478.76	0.769
3487.13	0.7696
3495.51	0.7889
3503.88	0.8
3512.25	0.8
3520.62	0.8046
3528.99	0.812
3537.36	0.8175
3545.73	0.819
3554.1	0.8206
3562.47	0.8262
3570.84	0.8332
3579.21	0.8336
3587.58	0.843
3595.95	0.8412
3604.32	0.844
3612.69	0.8456
3621.07	0.8464
3629.44	0.8526
3637.81	0.8586
3646.18	0.866
3654.55	0.8692
3662.92	0.872
3671.29	0.874
3679.66	0.8642
3688.03	0.8669
3696.4	0.8751
3704.77	0.8806
3713.14	0.885
3721.51	0.884
3729.88	0.882
3738.26	0.882
3746.63	0.8834
3755	0.8806
3763.37	0.884
3771.74	0.884
3780.11	0.884
3788.48	0.8836
3796.85	0.8874
3805.22	0.8804
