Infrared Spectrum: BENZENESULFONIC ACID, p-HYDRAZINO-
Formula: C6 H8 N2 O3 S
CAS: 98-71-5
State: SOLID (SPLIT MULL), FLUOROLUBE FOR 3800-1330 CM^-^1, NUJOL FOR 1330-400 CM^-^1
Class: COBLENTZ III
Instrument: DOW KBr FOREPRISM-GRATING
Instrument parameters: BLAZED AT 3.5, 12.0, 20.0 MICRON AND CHANGED AT 5.0, 7.5, 14.9 MICRON
Sampling: TRANSMISSION
Resolution: 2
Origin: DOW CHEMICAL COMPANY
1/CM	TRANSMITTANCE
378	0.7128
387	0.711
396	0.7087
405	0.7049
414	0.7
423	0.6941
432	0.6872
441	0.6751
450	0.6567
459	0.6403
468	0.6328
477	0.644
486	0.651
495	0.6717
504	0.678
513	0.6649
522	0.6708
531	0.669
540	0.6795
549	0.6462
558	0.3021
567	0.2273
576	0.5022
585	0.3334
594	0.3278
603	0.5403
612	0.6984
621	0.7299
630	0.6557
639	0.74
648	0.7424
657	0.7371
666	0.7171
675	0.6258
684	0.6601
693	0.7258
702	0.7211
711	0.6939
720	0.6558
729	0.5924
738	0.5668
747	0.5785
756	0.626
765	0.7345
774	0.7101
783	0.6273
792	0.7988
801	0.8175
810	0.8119
819	0.7515
828	0.5092
837	0.6575
846	0.6094
855	0.6758
864	0.6157
873	0.701
882	0.7133
891	0.6736
900	0.7372
909	0.7751
918	0.7905
927	0.7928
936	0.7906
945	0.7717
954	0.779
963	0.7715
972	0.7618
981	0.7511
990	0.7525
999	0.6903
1008	0.2419
1017	0.696
1026	0.6892
1035	0.2863
1044	0.5155
1053	0.6451
1062	0.7081
1071	0.7111
1080	0.6948
1089	0.668
1098	0.636
1107	0.5821
1116	0.3649
1125	0.2361
1134	0.1475
1143	0.3043
1152	0.1771
1161	0.1154
1170	0.0871
1179	0.1209
1188	0.1739
1197	0.1801
1206	0.1836
1215	0.3064
1224	0.4401
1233	0.4215
1242	0.5633
1251	0.5887
1260	0.6639
1269	0.7101
1278	0.7234
1287	0.7288
1296	0.7271
1305	0.709
1314	0.6785
1323	0.7192
1332	0.6112
1341	0.5868
1350	0.6122
1359	0.6701
1368	0.6733
1377	0.6612
1386	0.641
1395	0.6214
1404	0.5498
1413	0.4352
1422	0.499
1431	0.6568
1440	0.6756
1449	0.6778
1458	0.6771
1467	0.6718
1476	0.6548
1485	0.6255
1494	0.5108
1503	0.3322
1512	0.2477
1521	0.2471
1530	0.2912
1539	0.359
1548	0.4744
1557	0.5739
1566	0.4714
1575	0.4687
1584	0.3287
1593	0.2468
1602	0.1956
1611	0.2908
1620	0.4345
1629	0.4086
1638	0.5398
1647	0.6181
1656	0.7582
1665	0.7815
1674	0.7824
1683	0.7815
1692	0.7869
1701	0.7895
1710	0.786
1719	0.7825
1728	0.779
1737	0.7725
1746	0.7658
1755	0.7582
1764	0.7511
1773	0.7464
1782	0.7428
1791	0.7403
1800	0.7382
1809	0.7358
1818	0.7328
1827	0.7299
1836	0.7269
1845	0.7231
1854	0.718
1863	0.7094
1872	0.7008
1881	0.6912
1890	0.6798
1899	0.6567
1908	0.6661
1917	0.6551
1926	0.6526
1935	0.6725
1944	0.6621
1953	0.6575
1962	0.6592
1971	0.6454
1980	0.6405
1989	0.6346
1998	0.6287
2007	0.6188
2016	0.616
2025	0.6114
2034	0.6074
2043	0.6041
2052	0.5998
2061	0.5957
2070	0.5959
2079	0.5996
2088	0.6033
2097	0.6019
2106	0.6001
2115	0.5974
2124	0.594
2133	0.5899
2142	0.5847
2151	0.5794
2160	0.5754
2169	0.5712
2178	0.5657
2187	0.5603
2196	0.5549
2205	0.5495
2214	0.5438
2223	0.5378
2232	0.5319
2241	0.526
2250	0.5208
2259	0.5156
2268	0.5104
2277	0.5052
2286	0.5
2295	0.4947
2304	0.4907
2313	0.4867
2322	0.4828
2331	0.4788
2340	0.4755
2349	0.4722
2358	0.4688
2367	0.4654
2376	0.4617
2385	0.4579
2394	0.4544
2403	0.451
2412	0.4478
2421	0.4439
2430	0.4399
2439	0.4359
2448	0.4319
2457	0.4276
2466	0.4227
2475	0.4177
2484	0.4116
2493	0.4053
2502	0.3992
2511	0.393
2520	0.3868
2529	0.3794
2538	0.3708
2547	0.3607
2556	0.3496
2565	0.3373
2574	0.325
2583	0.3128
2592	0.3001
2601	0.2873
2610	0.2746
2619	0.2617
2628	0.2489
2637	0.2296
2646	0.2146
2655	0.2026
2664	0.1927
2673	0.1868
2682	0.1831
2691	0.1792
2700	0.1749
2709	0.1734
2718	0.1733
2727	0.1734
2736	0.1735
2745	0.1736
2754	0.1743
2763	0.175
2772	0.1784
2781	0.1795
2790	0.1793
2799	0.1791
2808	0.1779
2817	0.1754
2826	0.1713
2835	0.1659
2844	0.159
2853	0.1509
2862	0.1426
2871	0.1336
2880	0.1251
2889	0.1184
2898	0.1118
2907	0.1066
2916	0.1016
2925	0.0972
2934	0.0929
2943	0.0889
2952	0.0854
2961	0.0818
2970	0.0781
2979	0.0742
2988	0.0706
2997	0.067
3006	0.0631
3015	0.0603
3024	0.0581
3033	0.0575
3042	0.0579
3051	0.0589
3060	0.0605
3069	0.0616
3078	0.0623
3087	0.0623
3096	0.0637
3105	0.0684
3114	0.0772
3123	0.0895
3132	0.1022
3141	0.1154
3150	0.1299
3159	0.145
3168	0.1488
3177	0.1508
3186	0.1589
3195	0.1673
3204	0.1622
3213	0.1534
3222	0.1467
3231	0.1414
3240	0.1392
3249	0.1442
3258	0.1595
3267	0.1862
3276	0.2084
3285	0.2281
3294	0.2163
3303	0.1856
3312	0.1739
3321	0.2603
3330	0.2944
3339	0.3134
3348	0.3282
3357	0.3356
3366	0.3379
3375	0.337
3384	0.3355
3393	0.3336
3402	0.3309
3411	0.3274
3420	0.3238
3429	0.3184
3438	0.3126
3447	0.3061
3456	0.2977
3465	0.2861
3474	0.2726
3483	0.2684
3492	0.2716
3501	0.2783
3510	0.2867
3519	0.2995
3528	0.3109
3537	0.3216
3546	0.3321
3555	0.3422
3564	0.3522
3573	0.3599
3582	0.3659
3591	0.37
3600	0.3727
3609	0.3739
3618	0.3738
3627	0.373
3636	0.3712
3645	0.3691
3654	0.3666
3663	0.3634
3672	0.3603
3681	0.3571
3690	0.3541
3699	0.3502
3708	0.3462
3717	0.3422
3726	0.3386
3735	0.3355
3744	0.3324
3753	0.3294
3762	0.3266
3771	0.3239
3780	0.3214
3789	0.3188
3798	0.3163
