Infrared Spectrum: Benzoylchloride
Formula: C 7 H 5 Cl O
CAS: 98-88-4
State: gas
Instrument: HP-GC/MS/IRD
Origin: NIST Mass Spectrometry Data Center
1/CM	ABSORBANCE
550	0.0012358
562	0.0002294
574	4.44e-05
586	0.0001258
598	0.0004958
610	0.0020942
622	0.0039886
634	0.0050246
646	0.011063
658	0.0206312
670	0.0594294
682	0.0499278
694	0.0183816
706	0.0076146
718	0.0028564
730	0.0014282
742	0.0009842
754	0.0033892
766	0.0082658
778	0.0079772
790	0.0040774
802	0.0025456
814	0.002368
826	0.0037296
838	0.0080808
850	0.0241536
862	0.0568986
874	0.0737854
886	0.0548044
898	0.0272838
910	0.0144744
922	0.0082288
934	0.0038628
946	0.0013838
958	0.0005846
970	0.0006512
982	0.000666
994	0.0009842
1006	0.0010656
1018	0.0011026
1030	0.0010656
1042	0.0004514
1054	0.000481
1066	0.0010064
1078	0.0011026
1090	0.0009768
1102	0.0010138
1114	0.0008066
1126	0.0008066
1138	0.0013912
1150	0.0042772
1162	0.0151996
1174	0.0383616
1186	0.0386798
1198	0.0475228
1210	0.0405446
1222	0.008584
1234	0.0048766
1246	0.0035002
1258	0.0015466
1270	0.000851
1282	0.0010286
1294	0.001665
1306	0.0021756
1318	0.0018722
1330	0.0012358
1342	0.001073
1354	0.0006142
1366	0.0004144
1378	0.0006512
1390	0.0005846
1402	0.0003404
1414	0.0003478
1426	0.000777
1438	0.0036482
1450	0.0070152
1462	0.004366
1474	0.0012432
1486	0.0010804
1498	0.0008362
1510	0.0007548
1522	0.0007622
1534	0.00074
1546	0.0007622
1558	0.0008214
1570	0.0017612
1582	0.0041218
1594	0.005143
1606	0.0035742
1618	0.001628
1630	0.0007178
1642	0.00037
1654	0.0005254
1666	0.000703
1678	0.0011248
1690	0.001813
1702	0.0034114
1714	0.0056018
1726	0.0097828
1738	0.0164946
1750	0.0208458
1762	0.0240796
1774	0.0438746
1786	0.0724016
1798	0.0632182
1810	0.0235246
1822	0.0080142
1834	0.0048544
1846	0.0026418
1858	0.0011692
1870	0.0008436
1882	0.0008066
1894	0.0009842
1906	0.0012136
1918	0.0012062
1930	0.0007474
1942	0.0006438
1954	0.001073
1966	0.0012506
1978	0.0009546
1990	0.000444
2002	0.000259
2014	0.000222
2026	0.0002516
2038	0.0003552
2050	0.0004366
2062	0.0004514
2074	0.0004366
2086	0.0003478
2098	0.0002442
2110	0.000148
2122	0.0001036
2134	5.92e-05
2146	7.4e-05
2158	9.62e-05
2170	0.000148
2182	0.0001332
2194	0.0001628
2206	0.0001258
2218	0.0001332
2230	0.000111
2242	9.62e-05
2254	8.14e-05
2266	0.0001332
2278	0.0001258
2290	0.0001184
2302	0.0001036
2314	0.0001776
2326	0.0002886
2338	0.0002516
2350	0.0001776
2362	0.0001924
2374	0.000333
2386	0.0003552
2398	0.0002738
2410	0.0002516
2422	8.88e-05
2434	4.44e-05
2446	5.92e-05
2458	8.14e-05
2470	8.14e-05
2482	0.0001036
2494	5.18e-05
2506	6.66e-05
2518	3.7e-05
2530	5.92e-05
2542	5.92e-05
2554	8.88e-05
2566	7.4e-05
2578	0.0001332
2590	0.0002294
2602	0.000222
2614	0.0001998
2626	0.000148
2638	0.0001258
2650	0.0001554
2662	0.000148
2674	0.0002146
2686	0.0002368
2698	0.000185
2710	0.0001036
2722	7.4e-05
2734	8.88e-05
2746	0.0001184
2758	0.0001998
2770	0.0002886
2782	0.0003034
2794	0.0002812
2806	0.0002146
2818	5.18e-05
2830	3.7e-05
2842	1.48e-05
2854	8.88e-05
2866	0.0001332
2878	0.0001924
2890	0.0001702
2902	0.0001184
2914	0.0001554
2926	0.0001776
2938	0.000185
2950	0.000185
2962	0.00037
2974	0.0003034
2986	0.0003108
2998	0.0004366
3010	0.0005846
3022	0.000925
3034	0.0015318
3046	0.0021978
3058	0.0035594
3070	0.0068894
3082	0.0080956
3094	0.004181
3106	0.002553
3118	0.001036
3130	0.0003256
3142	0.0002368
3154	0.0003552
3166	0.0003626
3178	0.0002368
3190	0.0001258
3202	7.4e-05
3214	7.4e-05
3226	6.66e-05
3238	8.14e-05
3250	9.62e-05
3262	7.4e-05
3274	9.62e-05
3286	3.7e-05
3298	3.7e-05
3310	9.62e-05
3322	3.7e-05
3334	3.7e-05
3346	5.18e-05
3358	0.0001036
3370	0.0001258
3382	0.000148
3394	5.92e-05
3406	5.92e-05
3418	2.96e-05
3430	8.14e-05
3442	0.000111
3454	0.0001702
3466	0.0001406
3478	0.0003034
3490	0.000296
3502	0.000555
3514	0.0008954
3526	0.0010878
3538	0.0009398
3550	0.0007252
3562	0.0007326
3574	0.000666
3586	0.000629
3598	0.0004144
3610	0.0002146
3622	0.0001036
3634	8.88e-05
3646	0.0001036
3658	0.000111
3670	9.62e-05
3682	0.000111
3694	0.0001036
3706	0.0001036
3718	0.0001554
3730	0.0001184
3742	6.66e-05
3754	9.62e-05
3766	2.22e-05
3778	2.22e-05
3790	5.18e-05
3802	0
3814	0
3826	0
3838	6.66e-05
