Infrared Spectrum: 2-Pyrazinecarboxylic acid
Formula: C 5 H 4 N 2 O 2
CAS: 98-97-5
State: gas
Origin: EPA-IR VAPOR PHASE LIBRARY
1/CM	ABSORBANCE
549.8	0.0010561
559.445	0.0010663
569.09	0.0009797
578.734	0.001338
588.379	0.0010557
598.024	0.0010642
607.669	0.0009595
617.313	0.0012366
626.958	0.0012896
636.603	0.001398
646.248	0.001708
655.893	0.001968
665.537	0.002438
675.182	0.001578
684.827	0.0009491
694.472	0.0008864
704.116	0.0005273
713.761	0.0005622
723.406	0.0007143
733.051	0.0004539
742.695	0.000579
752.34	0.0006108
761.985	0.0008029
771.63	0.001045
781.275	0.0013071
790.919	0.0008641
800.564	0.0006641
810.209	0.000704
819.854	0.0005808
829.498	0.0005576
839.143	0.000544
848.788	0.00064
858.433	0.0007873
868.078	0.0006377
877.722	0.0004082
887.367	0.0005201
897.012	0.00030182
906.657	0.0002942
916.301	0.000483
925.946	0.000307086
935.591	0.00040382
945.236	0.0004598
954.88	0.0002575
964.525	0.00038392
974.17	0.0002968
983.815	0.0005331
993.46	0.0004936
1003.1	0.0011835
1012.75	0.001658
1022.39	0.001758
1032.04	0.001818
1041.68	0.0011445
1051.33	0.0010455
1060.97	0.0007482
1070.62	0.0007629
1080.26	0.001418
1089.91	0.001948
1099.55	0.003228
1109.2	0.003658
1118.84	0.002358
1128.49	0.001558
1138.13	0.001418
1147.78	0.001508
1157.42	0.001618
1167.07	0.001708
1176.71	0.001558
1186.36	0.001918
1196	0.001978
1205.64	0.002688
1215.29	0.002618
1224.93	0.002508
1234.58	0.002118
1244.22	0.0012603
1253.87	0.0012486
1263.51	0.001328
1273.16	0.0012714
1282.8	0.001458
1292.45	0.001688
1302.09	0.001798
1311.74	0.001928
1321.38	0.002378
1331.03	0.003438
1340.67	0.004858
1350.32	0.005408
1359.96	0.004878
1369.61	0.003348
1379.25	0.002478
1388.9	0.002068
1398.54	0.002308
1408.18	0.002798
1417.83	0.002918
1427.47	0.002268
1437.12	0.001408
1446.76	0.0008444
1456.41	0.00058
1466.05	0.0006028
1475.7	0.0005334
1485.34	0.000465
1494.99	0.0004751
1504.63	0.0004502
1514.28	0.0003671
1523.92	0.00040525
1533.57	0.0004422
1543.21	0.0004577
1552.86	0.0004246
1562.5	0.0004809
1572.15	0.0004948
1581.79	0.0005035
1591.44	0.00030231
1601.08	0.000153
1610.73	0.00018
1620.37	0.000187
1630.01	0.0002274
1639.66	0.000312116
1649.3	0.0002745
1658.95	0.0002867
1668.59	0.00037152
1678.24	0.00036019
1687.88	0.0004784
1697.53	0.0006019
1707.17	0.0006041
1716.82	0.0007034
1726.46	0.0007359
1736.11	0.0008348
1745.75	0.0012918
1755.4	0.002068
1765.04	0.002558
1774.69	0.003248
1784.33	0.004988
1793.98	0.006438
1803.62	0.005608
1813.27	0.002998
1822.91	0.0010663
1832.55	0.0006817
1842.2	0.0006017
1851.84	0.0004959
1861.49	0.0005302
1871.13	0.0004261
1880.78	0.000452
1890.42	0.0004737
1900.07	0.0004616
1909.71	0.0004193
1919.36	0.00037576
1929	0.00033482
1938.65	0.00038811
1948.29	0.00036026
1957.94	0.00035884
1967.58	0.00034037
1977.23	0.0002812
1986.87	0.00030241
1996.52	0.000245
2006.16	0.00037973
2015.81	0.0002393
2025.45	0.00033709
2035.1	0.0002943
2044.74	0.0002573
2054.38	0.00032451
2064.03	0.00029817
2073.67	0.0002813
2083.32	0.0002973
2092.96	0.00031947
2102.61	0.00032127
2112.25	0.0002589
2121.9	0.00030349
2131.54	0.000314966
2141.19	0.00032335
2150.83	0.000312419
2160.48	0.0002692
2170.12	0.00030534
2179.77	0.0002631
2189.41	0.000315339
2199.06	0.000178
2208.7	0.00026
2218.35	0.000287
2227.99	0.0002798
2237.64	0.0002623
2247.28	0.00032811
2256.92	0.0002283
2266.57	0.00036724
2276.21	0.00037778
2285.86	0.0006971
2295.5	0.0010061
2305.15	0.001618
2314.79	0.002168
2324.44	0.002578
2334.08	0.002488
2343.73	0.002158
2353.37	0.002408
2363.02	0.003368
2372.66	0.002698
2382.31	0.0011303
2391.95	0.00038853
2401.6	0.0002633
2411.24	0.00033704
2420.89	0.0002759
2430.53	0.0002393
2440.18	0.000246
2449.82	0.0002513
2459.47	0.0002892
2469.11	0.0002435
2478.75	0.00032357
2488.4	0.000185
2498.04	0.00018
2507.69	0.0003013
2517.33	0.0002342
2526.98	0.000252
2536.62	0.000285
2546.27	0.000242
2555.91	0.0002214
2565.56	0.000182
2575.2	0.000314692
2584.85	0.0002413
2594.49	0.000179
2604.14	0.000197
2613.78	0.000182
2623.43	0.00019
2633.07	0.0002217
2642.72	0.000128
2652.36	0.00030259
2662.01	0.000263
2671.65	0.0002498
2681.29	0.000181
2690.94	0.00033955
2700.58	0.0002189
2710.23	0.000121
2719.87	0.000109
2729.52	0.000208
2739.16	0.000173
2748.81	0.0002477
2758.45	0.0002872
2768.1	0.000124
2777.74	0.0002
2787.39	0.000161
2797.03	0.000243
2806.68	0.0002759
2816.32	0.0002166
2825.97	0.000198
2835.61	0.0002108
2845.26	0.0002936
2854.9	0.000135
2864.55	0.0002377
2874.19	0.000181
2883.84	0.00036376
2893.48	0.000199
2903.12	0.00033595
2912.77	0.0002174
2922.41	9.5e-05
2932.06	0.0002435
2941.7	0.000127
2951.35	0.0004146
2960.99	0.0002564
2970.64	0.0002414
2980.28	0.00032802
2989.93	0.00037784
2999.57	0.0002857
3009.22	0.00033898
3018.86	0.00035712
3028.51	0.0004267
3038.15	0.0004103
3047.8	0.0007032
3057.44	0.0011773
3067.09	0.0011929
3076.73	0.0011867
3086.38	0.0006826
3096.02	0.00034119
3105.67	0.0002139
3115.31	0.00038611
3124.95	0.0002385
3134.6	0.000192
3144.24	0.000131
3153.89	0.000187
3163.53	0.000214
3173.18	0.000183
3182.82	0.000166
3192.47	0.000234
3202.11	0.000162
3211.76	0.0004314
3221.4	0.00038315
3231.05	0.000294
3240.69	0.00039025
3250.34	0.0002144
3259.98	0.00037104
3269.63	0.00036989
3279.27	0.0004728
3288.92	0.000349
3298.56	0.0004183
3308.21	0.000315099
3317.85	0.00033509
3327.49	0.000166
3337.14	0.0002236
3346.78	0.0002939
3356.43	0.00032861
3366.07	0.00031833
3375.72	0.0003912
3385.36	0.000251
3395.01	0.00032669
3404.65	0.00029867
3414.3	0.0004362
3423.94	0.000744
3433.59	0.001448
3443.23	0.001638
3452.88	0.001838
3462.52	0.001418
3472.17	0.0011116
3481.81	0.0006921
3491.46	0.000632
3501.1	0.0007307
3510.75	0.0005313
3520.39	0.0002557
3530.04	0.0004282
3539.68	0.00040075
3549.32	0.0004251
3558.97	0.00036733
3568.61	0.0008982
3578.26	0.0010759
3587.9	0.001
3597.55	0.0004432
3607.19	0.0004918
3616.84	0.000309918
3626.48	0.0002495
3636.13	0.0005007
3645.77	0.0004566
3655.42	0.0002619
3665.06	0.0003278
3674.71	0.00035783
3684.35	0.000269
3694	0.0005911
3703.64	0.0002422
3713.29	0.00032589
3722.93	0.000221
3732.58	0.00033702
3742.22	0.00036838
3751.86	0.00030099
3761.51	0.0002974
3771.15	0.0002821
3780.8	0.0002174
3790.44	0.0002553
3800.09	0.0004727
3809.73	0.000422
3819.38	0.0002262
3829.02	0.00030523
3838.67	0.0005319
3848.31	0.0005225
3857.96	0.000207
3867.6	0.0004536
3877.25	0.0002422
3886.89	1.9e-05
3896.54	9.6e-05
3906.18	0.00038455
3915.83	0.0002434
3925.47	0.00033615
3935.12	0.00031841
3944.76	0.00032595
3954.41	0.0002498
3964.05	0.0002964
3973.69	0.00035418
3983.34	0.0004095
3992.98	0.0004132
