Infrared Spectrum: Nicotinamide
Formula: C 6 H 6 N 2 O
CAS: 98-92-0
State: gas
Instrument: HP-GC/MS/IRD
Origin: NIST Mass Spectrometry Data Center
1/CM	ABSORBANCE
550	0.0005536
562	0.0004272
574	0.0001344
586	0.0002
598	0.000552
610	0.0008032
622	0.0013552
634	0.001488
646	0.0010464
658	0.00072
670	0.0007936
682	0.0009296
694	0.0014624
706	0.0021872
718	0.0023008
730	0.0029456
742	0.002592
754	0.0017744
766	0.0012176
778	0.0011072
790	0.001016
802	0.0010848
814	0.0012096
826	0.0010864
838	0.0009072
850	0.0006848
862	0.0006368
874	0.0006688
886	0.0006112
898	0.0005808
910	0.000568
922	0.0005072
934	0.000464
946	0.0004816
958	0.0005216
970	0.0004368
982	0.0003872
994	0.0004848
1006	0.0008192
1018	0.0012896
1030	0.0011344
1042	0.00064
1054	0.000664
1066	0.0008816
1078	0.000976
1090	0.0007424
1102	0.0004832
1114	0.0005472
1126	0.0007744
1138	0.0008368
1150	0.000632
1162	0.0002912
1174	0.0004128
1186	0.0007184
1198	0.0007056
1210	0.0005888
1222	0.0005072
1234	0.0004912
1246	0.0005616
1258	0.000664
1270	0.0006896
1282	0.00068
1294	0.00076
1306	0.0011728
1318	0.0022064
1330	0.0049168
1342	0.0091616
1354	0.0092672
1366	0.0043664
1378	0.001616
1390	0.0010224
1402	0.0012928
1414	0.0020784
1426	0.001728
1438	0.0005392
1450	0.000272
1462	0.0003152
1474	0.0004448
1486	0.0003488
1498	0.0002688
1510	0.000272
1522	0.0003408
1534	0.0004736
1546	0.0008656
1558	0.0015808
1570	0.0030176
1582	0.006536
1594	0.0078752
1606	0.0043024
1618	0.0015168
1630	0.000896
1642	0.0007072
1654	0.0007952
1666	0.0011264
1678	0.0019152
1690	0.002944
1702	0.0057504
1714	0.0142704
1726	0.015912
1738	0.0088544
1750	0.0030576
1762	0.0018032
1774	0.0009744
1786	0.000472
1798	0.0003232
1810	0.0002544
1822	0.000224
1834	0.0002192
1846	0.0002272
1858	0.000184
1870	0.0001904
1882	0.0002192
1894	0.0002512
1906	0.0002272
1918	0.0002048
1930	0.0002016
1942	0.0002
1954	0.0001808
1966	0.0001696
1978	0.0001504
1990	0.0001136
2002	7.52e-05
2014	4.16e-05
2026	6.24e-05
2038	8.64e-05
2050	5.76e-05
2062	6.56e-05
2074	7.2e-05
2086	9.12e-05
2098	0.0001008
2110	9.12e-05
2122	5.44e-05
2134	6.24e-05
2146	5.76e-05
2158	7.52e-05
2170	7.68e-05
2182	9.12e-05
2194	7.04e-05
2206	9.44e-05
2218	9.76e-05
2230	9.12e-05
2242	8.64e-05
2254	8.96e-05
2266	5.92e-05
2278	7.04e-05
2290	6.08e-05
2302	4.64e-05
2314	3.68e-05
2326	7.2e-05
2338	0.0001072
2350	8.32e-05
2362	9.12e-05
2374	7.84e-05
2386	0.000104
2398	7.68e-05
2410	0.000104
2422	9.92e-05
2434	9.92e-05
2446	7.52e-05
2458	7.52e-05
2470	7.68e-05
2482	7.68e-05
2494	5.6e-05
2506	6.08e-05
2518	6.72e-05
2530	3.04e-05
2542	3.04e-05
2554	5.76e-05
2566	6.4e-05
2578	7.04e-05
2590	5.92e-05
2602	0.000104
2614	0.0001216
2626	8e-05
2638	4.32e-05
2650	5.76e-05
2662	7.68e-05
2674	7.52e-05
2686	8.16e-05
2698	8.64e-05
2710	6.72e-05
2722	0.000128
2734	7.52e-05
2746	5.44e-05
2758	8e-05
2770	6.56e-05
2782	0.0001152
2794	0.0001056
2806	0.0001008
2818	7.04e-05
2830	5.28e-05
2842	0
2854	2.88e-05
2866	6.24e-05
2878	7.68e-05
2890	0.000144
2902	0.0001216
2914	0.00012
2926	6.88e-05
2938	0.0001328
2950	9.6e-05
2962	0.0001184
2974	0.0002656
2986	0.000288
2998	0.0003056
3010	0.0004256
3022	0.000624
3034	0.0010592
3046	0.0013568
3058	0.0012368
3070	0.0007952
3082	0.0007376
3094	0.0006576
3106	0.0003504
3118	0.0002352
3130	0.0001392
3142	0.000216
3154	0.0001984
3166	0.0001952
3178	0.0001392
3190	0.000168
3202	9.92e-05
3214	0.0001232
3226	5.92e-05
3238	0.0001184
3250	0.0001216
3262	9.6e-05
3274	0.0001232
3286	0.0001152
3298	0.000176
3310	0.0001824
3322	8e-05
3334	0.000168
3346	0.000136
3358	0.000136
3370	0.000192
3382	0.0002768
3394	0.000408
3406	0.000752
3418	0.0012992
3430	0.0018144
3442	0.0016288
3454	0.000896
3466	0.0004368
3478	0.0003472
3490	0.0003264
3502	0.0003648
3514	0.0005728
3526	0.000768
3538	0.00112
3550	0.0014384
3562	0.0011696
3574	0.0005088
3586	0.0002624
3598	0.0001136
3610	0.0001488
3622	9.92e-05
3634	0.0001488
3646	0.0001392
3658	0.0001376
3670	7.84e-05
3682	4.48e-05
3694	0.000136
3706	7.36e-05
3718	7.2e-05
3730	5.92e-05
3742	0.0001328
3754	0.00012
3766	0.0001808
3778	9.6e-05
3790	0.0001312
3802	0.000112
3814	0.0001648
3826	0.0001296
3838	0.0001136
