Infrared Spectrum: Pyrazinamide
Formula: C 5 H 5 N 3 O
CAS: 98-96-4
State: gas
Instrument: HP-GC/MS/IRD
Origin: NIST Mass Spectrometry Data Center
1/CM	ABSORBANCE
550	0.0002904
562	4.68e-05
574	1.44e-05
586	9.96e-05
598	0.0004956
610	0.0005544
622	0.0001644
634	0.0005712
646	0.0006852
658	0.000252
670	6.36e-05
682	0.0001008
694	0.0001428
706	0.0002436
718	0.0003024
730	0.0003456
742	0.0003828
754	0.0005484
766	0.0007932
778	0.0010404
790	0.0008472
802	0.0006276
814	0.0006036
826	0.0005844
838	0.0006732
850	0.0008712
862	0.000978
874	0.00078
886	0.0006516
898	0.0006576
910	0.0007308
922	0.0007344
934	0.0006648
946	0.0005988
958	0.0005676
970	0.0004224
982	0.0003852
994	0.0005148
1006	0.0011748
1018	0.0017052
1030	0.0015444
1042	0.0007464
1054	0.0005532
1066	0.0004056
1078	0.000606
1090	0.0008124
1102	0.0005508
1114	0.0004188
1126	0.0004572
1138	0.00084
1150	0.0017028
1162	0.0020592
1174	0.0012
1186	0.0005208
1198	0.0002376
1210	0.0001728
1222	0.0001608
1234	0.000132
1246	0.0001308
1258	0.000144
1270	0.0002268
1282	0.0003324
1294	0.0003816
1306	0.0004272
1318	0.0005772
1330	0.0014796
1342	0.00426
1354	0.005214
1366	0.0023772
1378	0.0007692
1390	0.0005544
1402	0.0008448
1414	0.0009876
1426	0.0007668
1438	0.0002724
1450	0.0001932
1462	0.0002952
1474	0.0002304
1486	0.0001116
1498	8.76e-05
1510	1.68e-05
1522	0.0001656
1534	0.0004284
1546	0.0011496
1558	0.00342
1570	0.0051948
1582	0.0041112
1594	0.0020868
1606	0.000804
1618	0.0003804
1630	0.0002844
1642	0.0002868
1654	0.0003012
1666	0.0005316
1678	0.0006312
1690	0.0008952
1702	0.0018324
1714	0.0058104
1726	0.012
1738	0.0117828
1750	0.0036024
1762	0.0008016
1774	0.000372
1786	0.0003972
1798	0.0004068
1810	0.0003012
1822	0.0001452
1834	0.0001008
1846	4.08e-05
1858	7.32e-05
1870	5.88e-05
1882	8.64e-05
1894	8.76e-05
1906	0.0001092
1918	0.0001452
1930	0.0001632
1942	0.000126
1954	0.0001056
1966	5.64e-05
1978	5.52e-05
1990	3.84e-05
2002	6.96e-05
2014	3.24e-05
2026	3.6e-05
2038	2.52e-05
2050	1.92e-05
2062	4.92e-05
2074	4.08e-05
2086	2.16e-05
2098	3.24e-05
2110	3.84e-05
2122	4.32e-05
2134	3.24e-05
2146	3.36e-05
2158	4.68e-05
2170	1.68e-05
2182	1.68e-05
2194	3e-05
2206	2.04e-05
2218	2.16e-05
2230	3.6e-05
2242	4.2e-05
2254	4.8e-05
2266	3.72e-05
2278	2.64e-05
2290	1.44e-05
2302	3.72e-05
2314	3.36e-05
2326	2.4e-05
2338	2.28e-05
2350	2.52e-05
2362	3.96e-05
2374	2.28e-05
2386	3e-05
2398	1.8e-05
2410	1.68e-05
2422	2.76e-05
2434	4.56e-05
2446	4.08e-05
2458	4.08e-05
2470	3.96e-05
2482	2.4e-05
2494	2.16e-05
2506	5.52e-05
2518	4.08e-05
2530	2.88e-05
2542	2.52e-05
2554	1.56e-05
2566	4.44e-05
2578	5.28e-05
2590	5.04e-05
2602	4.08e-05
2614	2.52e-05
2626	3.24e-05
2638	1.32e-05
2650	3.24e-05
2662	4.56e-05
2674	5.88e-05
2686	2.04e-05
2698	3.84e-05
2710	3.84e-05
2722	6e-05
2734	4.8e-05
2746	7.2e-05
2758	5.4e-05
2770	3.96e-05
2782	3.48e-05
2794	1.8e-05
2806	5.88e-05
2818	8.52e-05
2830	5.04e-05
2842	5.52e-05
2854	4.92e-05
2866	5.16e-05
2878	6.6e-05
2890	6.48e-05
2902	9.84e-05
2914	9.24e-05
2926	9.96e-05
2938	0.00012
2950	7.68e-05
2962	8.04e-05
2974	0.000132
2986	0.0001116
2998	0.0001224
3010	0.000138
3022	0.0001464
3034	0.0002328
3046	0.0005112
3058	0.0010932
3070	0.0011088
3082	0.0005892
3094	0.0003024
3106	0.0002028
3118	0.000156
3130	0.0001068
3142	0.0001572
3154	0.000156
3166	0.0001116
3178	0.000102
3190	6.96e-05
3202	0.0001008
3214	4.92e-05
3226	0.0001248
3238	0.0001128
3250	0.0001284
3262	7.2e-05
3274	0.0001068
3286	0.0001224
3298	0.0001308
3310	0.0001404
3322	0.0001236
3334	0.0001404
3346	0.0001428
3358	0.0001392
3370	0.0001404
3382	0.0002184
3394	0.000432
3406	0.0008484
3418	0.0014172
3430	0.0013368
3442	0.0008964
3454	0.0003588
3466	0.000264
3478	0.0002544
3490	0.0003204
3502	0.0004776
3514	0.0007872
3526	0.0013296
3538	0.002034
3550	0.0023364
3562	0.0014292
3574	0.0003672
3586	0.0001524
3598	0.0001428
3610	0.0001116
3622	0.0001548
3634	0.0001428
3646	8.4e-05
3658	0.0001188
3670	2.64e-05
3682	0.000138
3694	7.92e-05
3706	0.0001044
3718	0.0001332
3730	9.96e-05
3742	5.4e-05
3754	7.92e-05
3766	0.000108
3778	0.0001692
3790	0.0001728
3802	0.0001164
3814	0.000168
3826	8.52e-05
3838	4.68e-05
