Infrared Spectrum: Propionamide, 2-(hydroxyamino)-2-methyl-
Formula: C4 H10 N2 O2
CAS: 98026-06-3
State: SOLID (1 mg / 650 mg KBr DISC)
Class: COBLENTZ III
Instrument: PERKIN-ELMER 21 (GRATING)
Instrument parameters: FILTER CHANGE ABOUT 1075 CM^-^1
Sampling: TRANSMISSION
Resolution: 2
Origin: SOUTHERN RESEARCH INSTITUTE
1/CM	TRANSMITTANCE
630	0.9902
639	1.0003
648	1.0081
657	1.0074
666	0.9984
675	0.977
684	0.9898
693	0.994
702	0.982
711	0.9636
720	0.9558
729	0.9432
738	0.9141
747	0.9027
756	0.8902
765	0.8546
774	0.781
783	0.5655
792	0.4772
801	0.6288
810	0.8406
819	0.8752
828	0.8791
837	0.8792
846	0.8784
855	0.8639
864	0.8334
873	0.7828
882	0.7233
891	0.4706
900	0.6008
909	0.8161
918	0.8239
927	0.8156
936	0.7914
945	0.7235
954	0.8403
963	0.8435
972	0.8403
981	0.8336
990	0.822
999	0.8058
1008	0.7518
1017	0.7058
1026	0.6783
1035	0.6658
1044	0.6859
1053	0.6822
1062	0.6755
1071	0.6029
1080	0.6207
1089	0.5212
1098	0.5932
1107	0.6273
1116	0.6285
1125	0.6227
1134	0.618
1143	0.602
1152	0.5854
1161	0.5645
1170	0.5011
1179	0.3986
1188	0.2766
1197	0.1272
1206	0.3331
1215	0.4204
1224	0.443
1233	0.5052
1242	0.5138
1251	0.5007
1260	0.4651
1269	0.2185
1278	0.4029
1287	0.3996
1296	0.4094
1305	0.6738
1314	0.6761
1323	0.6511
1332	0.5888
1341	0.5353
1350	0.4751
1359	0.2477
1368	0.0632
1377	0.3416
1386	0.5115
1395	0.4328
1404	0.267
1413	0.1135
1422	0.3536
1431	0.3816
1440	0.353
1449	0.3556
1458	0.2423
1467	0.2544
1476	0.3938
1485	0.4118
1494	0.3894
1503	0.33
1512	0.2797
1521	0.1705
1530	0.0876
1539	0.0636
1548	0.0879
1557	0.1475
1566	0.1221
1575	0.0662
1584	0.088
1593	0.157
1602	0.1711
1611	0.1617
1620	0.0835
1629	0.0421
1638	0.095
1647	0.2433
1656	0.3028
1665	0.3765
1674	0.4159
1683	0.4439
1692	0.4638
1701	0.5057
1710	0.5571
1719	0.5862
1728	0.6079
1737	0.6332
1746	0.651
1755	0.6672
1764	0.6826
1773	0.6977
1782	0.7119
1791	0.7244
1800	0.7364
1809	0.7474
1818	0.7577
1827	0.766
1836	0.7741
1845	0.7821
1854	0.7898
1863	0.7971
1872	0.8042
1881	0.8087
1890	0.815
1899	0.8153
1908	0.8154
1917	0.8154
1926	0.8155
1935	0.8157
1944	0.817
1953	0.8245
1962	0.825
1971	0.8244
1980	0.8223
1989	0.8196
1998	0.8136
2007	0.8044
2016	0.7936
2025	0.7833
2034	0.7757
2043	0.7699
2052	0.7632
2061	0.7466
2070	0.7321
2079	0.7211
2088	0.715
2097	0.7233
2106	0.7408
2115	0.7603
2124	0.7652
2133	0.7705
2142	0.7856
2151	0.801
2160	0.8125
2169	0.8166
2178	0.8244
2187	0.8413
2196	0.852
2205	0.8558
2214	0.855
2223	0.8615
2232	0.8659
2241	0.8647
2250	0.8599
2259	0.8577
2268	0.852
2277	0.8419
2286	0.8414
2295	0.8351
2304	0.8169
2313	0.7978
2322	0.7966
2331	0.796
2340	0.7966
2349	0.7986
2358	0.8003
2367	0.8037
2376	0.8035
2385	0.7992
2394	0.7902
2403	0.7708
2412	0.7491
2421	0.7479
2430	0.7385
2439	0.7255
2448	0.709
2457	0.6919
2466	0.6775
2475	0.6765
2484	0.6733
2493	0.6459
2502	0.6151
2511	0.5822
2520	0.5404
2529	0.5265
2538	0.5218
2547	0.5048
2556	0.4782
2565	0.4378
2574	0.3992
2583	0.3835
2592	0.395
2601	0.4141
2610	0.4591
2619	0.4889
2628	0.4851
2637	0.4745
2646	0.4584
2655	0.4398
2664	0.4191
2673	0.407
2682	0.4078
2691	0.4092
2700	0.4063
2709	0.4
2718	0.393
2727	0.3754
2736	0.3474
2745	0.3211
2754	0.2892
2763	0.2524
2772	0.2255
2781	0.2135
2790	0.2063
2799	0.203
2808	0.1973
2817	0.1895
2826	0.1809
2835	0.1749
2844	0.1775
2853	0.1796
2862	0.1798
2871	0.1778
2880	0.1768
2889	0.1759
2898	0.1737
2907	0.1678
2916	0.1565
2925	0.1437
2934	0.1293
2943	0.1152
2952	0.1023
2961	0.0881
2970	0.0796
2979	0.0761
2988	0.0646
2997	0.0625
3006	0.0649
3015	0.0693
3024	0.0743
3033	0.0808
3042	0.0916
3051	0.1037
3060	0.1205
3069	0.1347
3078	0.1404
3087	0.174
3096	0.1914
3105	0.2044
3114	0.2167
3123	0.2302
3132	0.2439
3141	0.2541
3150	0.2608
3159	0.267
3168	0.2801
3177	0.2885
3186	0.3047
3195	0.3121
3204	0.3169
3213	0.3208
3222	0.3375
3231	0.3472
3240	0.357
3249	0.3636
3258	0.3727
3267	0.3831
3276	0.3925
3285	0.398
3294	0.4041
3303	0.4045
3312	0.4048
3321	0.4102
3330	0.4053
3339	0.4047
3348	0.4059
3357	0.3992
3366	0.3993
3375	0.4007
3384	0.4036
3393	0.4067
3402	0.4123
3411	0.4197
3420	0.4282
3429	0.4367
3438	0.4457
3447	0.4551
3456	0.4662
3465	0.4804
3474	0.4953
3483	0.5103
3492	0.5229
3501	0.532
3510	0.5396
3519	0.5518
3528	0.5641
3537	0.5763
3546	0.5876
3555	0.6025
3564	0.6316
3573	0.6461
3582	0.6564
3591	0.6677
3600	0.6812
3609	0.6897
3618	0.7037
3627	0.7181
3636	0.7183
3645	0.7166
3654	0.7149
3663	0.7194
3672	0.7258
3681	0.7307
3690	0.7335
3699	0.733
3708	0.7291
3717	0.7291
3726	0.7315
3735	0.7354
3744	0.7406
3753	0.7455
3762	0.7432
3771	0.7393
3780	0.7373
3789	0.7385
3798	0.7408
3807	0.7419
3816	0.7419
3825	0.7421
3834	0.7473
3843	0.7483
3852	0.7476
3861	0.747
3870	0.7481
3879	0.7599
3888	0.7633
3897	0.7651
3906	0.7662
3915	0.7681
3924	0.7703
3933	0.7724
3942	0.7722
3951	0.7703
3960	0.7676
3969	0.7653
3978	0.7657
3987	0.7671
3996	0.7682
