Infrared Spectrum: 5,5'-DICHLORO-[2,2'-AZO-1,3,4-THIADIAZOL]
Formula: C4 Cl2 N6 S2
CAS: 98020-86-1
State: SOLID (KBr PELLET)
Class: COBLENTZ
Instrument: Not specified, most likely a prism, grating, or hybrid spectrometer.
Sampling: TRANSMISSION
Resolution: 4
Origin: NORBERT PETRI
MICROMETERS	TRANSMITTANCE
2.036	0.315
2.07208	0.323
2.10816	0.331
2.14424	0.334
2.18031	0.346
2.21639	0.346
2.25247	0.353
2.28855	0.359
2.32463	0.363
2.36071	0.375
2.39678	0.376
2.43286	0.388
2.46894	0.392
2.50502	0.394
2.5411	0.398
2.57718	0.411
2.61325	0.418
2.64933	0.418
2.68541	0.424
2.72149	0.428
2.75757	0.428
2.79365	0.4
2.82972	0.355
2.8658	0.345
2.90188	0.33
2.93796	0.329
2.97404	0.349
3.01012	0.37
3.04619	0.389
3.08227	0.404
3.11835	0.414
3.15443	0.434
3.19051	0.444
3.22659	0.452
3.26266	0.46
3.29874	0.468
3.33482	0.483
3.3709	0.484
3.40698	0.484
3.44306	0.481
3.47914	0.485
3.51521	0.49
3.55129	0.504
3.58737	0.508
3.62345	0.519
3.65953	0.523
3.69561	0.529
3.73168	0.527
3.76776	0.53
3.80384	0.531
3.83992	0.539
3.876	0.544
3.91208	0.539
3.94815	0.552
3.98423	0.554
4.02031	0.56
4.05639	0.562
4.09247	0.561
4.12855	0.571
4.16462	0.575
4.2007	0.579
4.23678	0.585
4.27286	0.6
4.30894	0.605
4.34502	0.599
4.38109	0.598
4.41717	0.598
4.45325	0.606
4.48933	0.606
4.52541	0.607
4.56149	0.605
4.59756	0.608
4.63364	0.608
4.66972	0.615
4.7058	0.611
4.74188	0.617
4.77796	0.623
4.81404	0.633
4.85011	0.634
4.88619	0.638
4.92227	0.639
4.95835	0.644
4.99443	0.645
5.03051	0.65
5.06658	0.65
5.10266	0.654
5.13874	0.654
5.17482	0.663
5.2109	0.663
5.24698	0.669
5.28305	0.674
5.31913	0.674
5.35521	0.677
5.39129	0.675
5.42737	0.68
5.46345	0.679
5.49952	0.691
5.5356	0.69
5.57168	0.698
5.60776	0.687
5.64384	0.692
5.67992	0.688
5.71599	0.69
5.75207	0.677
5.78815	0.644
5.82423	0.636
5.86031	0.601
5.89639	0.605
5.93246	0.622
5.96854	0.629
6.00462	0.629
6.0407	0.623
6.07678	0.634
6.11286	0.624
6.14894	0.633
6.18501	0.644
6.22109	0.659
6.25717	0.673
6.29325	0.676
6.32933	0.68
6.36541	0.684
6.40148	0.69
6.43756	0.688
6.47364	0.682
6.50972	0.694
6.5458	0.69
6.58188	0.69
6.61795	0.692
6.65403	0.709
6.69011	0.71
6.72619	0.719
6.76227	0.722
6.79835	0.723
6.83442	0.725
6.8705	0.726
6.90658	0.722
6.94266	0.633
6.97874	0.668
7.01482	0.694
7.05089	0.698
7.08697	0.716
7.12305	0.709
7.15913	0.728
7.19521	0.745
7.23129	0.75
7.26736	0.744
7.30344	0.679
7.33952	0.547
7.3756	0.265
7.41168	0.036
7.44776	0.11
7.48384	0.268
7.51991	0.414
7.55599	0.47
7.59207	0.538
7.62815	0.569
7.66423	0.596
7.70031	0.607
7.73638	0.615
7.77246	0.616
7.80854	0.636
7.84462	0.629
7.8807	0.638
7.91678	0.652
7.95285	0.657
7.98893	0.642
8.02501	0.667
8.06109	0.687
8.09717	0.659
8.13325	0.406
8.16932	0.365
8.2054	0.546
8.24148	0.608
8.27756	0.638
8.31364	0.648
8.34972	0.629
8.38579	0.531
8.42187	0.61
8.45795	0.627
8.49403	0.633
8.53011	0.648
8.56619	0.667
8.60226	0.68
8.63834	0.688
8.67442	0.698
8.7105	0.705
8.74658	0.715
8.78266	0.719
8.81874	0.708
8.85481	0.663
8.89089	0.667
8.92697	0.661
8.96305	0.64
8.99913	0.498
9.03521	0.242
9.07128	0.118
9.10736	0.217
9.14344	0.374
9.17952	0.474
9.2156	0.537
9.25168	0.578
9.28775	0.6
9.32383	0.593
9.35991	0.393
9.39599	0.359
9.43207	0.539
9.46815	0.582
9.50422	0.607
9.5403	0.616
9.57638	0.624
9.61246	0.636
9.64854	0.64
9.68462	0.648
9.72069	0.648
9.75677	0.658
9.79285	0.665
9.82893	0.67
9.86501	0.673
9.90109	0.677
9.93716	0.679
9.97324	0.685
10.0093	0.691
10.0454	0.693
10.0815	0.699
10.1176	0.703
10.1536	0.709
10.1897	0.705
10.2258	0.702
10.2619	0.711
10.2979	0.719
10.334	0.725
10.3701	0.732
10.4062	0.733
10.4423	0.738
10.4783	0.738
10.5144	0.742
10.5505	0.745
10.5866	0.744
10.6227	0.742
10.6587	0.744
10.6948	0.745
10.7309	0.746
10.767	0.749
10.803	0.753
10.8391	0.753
10.8752	0.753
10.9113	0.762
10.9474	0.76
10.9834	0.76
11.0195	0.762
11.0556	0.759
11.0917	0.767
11.1278	0.762
11.1638	0.767
11.1999	0.765
11.236	0.767
11.2721	0.768
11.3081	0.772
11.3442	0.777
11.3803	0.776
11.4164	0.774
11.4525	0.773
11.4885	0.778
11.5246	0.782
11.5607	0.783
11.5968	0.777
11.6328	0.783
11.6689	0.779
11.705	0.782
11.7411	0.784
11.7772	0.779
11.8132	0.782
11.8493	0.782
11.8854	0.783
11.9215	0.778
11.9576	0.786
11.9936	0.778
12.0297	0.772
12.0658	0.774
12.1019	0.774
12.1379	0.776
12.174	0.782
12.2101	0.786
12.2462	0.785
12.2823	0.784
12.3183	0.779
12.3544	0.782
12.3905	0.78
12.4266	0.78
12.4627	0.783
12.4987	0.783
12.5348	0.789
12.5709	0.779
12.607	0.791
12.643	0.791
12.6791	0.788
12.7152	0.792
12.7513	0.792
12.7874	0.792
12.8234	0.797
12.8595	0.788
12.8956	0.786
12.9317	0.788
12.9677	0.784
13.0038	0.788
13.0399	0.783
13.076	0.779
13.1121	0.779
13.1481	0.786
13.1842	0.786
13.2203	0.791
13.2564	0.794
13.2925	0.799
13.3285	0.795
13.3646	0.806
13.4007	0.802
13.4368	0.796
13.4728	0.79
13.5089	0.743
13.545	0.613
13.5811	0.475
13.6172	0.427
13.6532	0.548
13.6893	0.64
13.7254	0.687
13.7615	0.711
13.7976	0.732
13.8336	0.743
13.8697	0.751
13.9058	0.754
13.9419	0.761
13.9779	0.763
14.014	0.763
14.0501	0.762
14.0862	0.757
14.1223	0.776
14.1583	0.765
14.1944	0.777
14.2305	0.769
14.2666	0.768
14.3026	0.765
14.3387	0.771
14.3748	0.767
14.4109	0.766
14.447	0.776
14.483	0.771
14.5191	0.769
14.5552	0.772
14.5913	0.769
14.6274	0.772
14.6634	0.768
14.6995	0.773
14.7356	0.768
14.7717	0.767
14.8077	0.765
14.8438	0.763
14.8799	0.762
14.916	0.766
14.9521	0.759
14.9881	0.762
15.0242	0.762
15.0603	0.765
15.0964	0.759
15.1325	0.759
15.1685	0.757
15.2046	0.753
15.2407	0.756
15.2768	0.754
15.3128	0.753
15.3489	0.757
15.385	0.755
