Infrared Spectrum: 2-Iodophenyl isothiocyanate
Formula: C 7 H 4 I N S
CAS: 98041-44-2
State: gas
Origin: EPA-IR VAPOR PHASE LIBRARY
1/CM	ABSORBANCE
549.8	0.018457
559.445	0.019257
569.09	0.019287
578.734	0.013807
588.379	0.009307
598.024	0.006537
607.669	0.005147
617.313	0.004307
626.958	0.004707
636.603	0.013327
646.248	0.014227
655.893	0.005477
665.537	0.004457
675.182	0.007007
684.827	0.011077
694.472	0.019567
704.116	0.031367
713.761	0.021267
723.406	0.008277
733.051	0.016617
742.695	0.081007
752.34	0.092367
761.985	0.020237
771.63	0.003077
781.275	0.002607
790.919	0.005267
800.564	0.004047
810.209	0.002327
819.854	0.002417
829.498	0.002557
839.143	0.001757
848.788	0.002607
858.433	0.002797
868.078	0.002077
877.722	0.001887
887.367	0.002567
897.012	0.004367
906.657	0.006737
916.301	0.009677
925.946	0.016917
935.591	0.039967
945.236	0.056927
954.88	0.030967
964.525	0.012807
974.17	0.007717
983.815	0.005407
993.46	0.004837
1003.1	0.008657
1012.75	0.028017
1022.39	0.033297
1032.04	0.015577
1041.68	0.014707
1051.33	0.009567
1060.97	0.002867
1070.62	0.0012963
1080.26	0.0007204
1089.91	0.0014497
1099.55	0.001587
1109.2	0.0009995
1118.84	0.0010587
1128.49	0.001507
1138.13	0.001797
1147.78	0.00056102
1157.42	0.0007344
1167.07	0.00053002
1176.71	0.0007958
1186.36	0.000361
1196	0.0009322
1205.64	0.0010001
1215.29	0.0011129
1224.93	0.0008318
1234.58	0.002317
1244.22	0.003137
1253.87	0.003677
1263.51	0.005807
1273.16	0.008697
1282.8	0.009027
1292.45	0.005287
1302.09	0.001957
1311.74	0.0013852
1321.38	0.0013081
1331.03	0.0011116
1340.67	0.0010118
1350.32	0.0010911
1359.96	0.001737
1369.61	0.002917
1379.25	0.002437
1388.9	0.002547
1398.54	0.003867
1408.18	0.003477
1417.83	0.005237
1427.47	0.017387
1437.12	0.026577
1446.76	0.018627
1456.41	0.055257
1466.05	0.098137
1475.7	0.040647
1485.34	0.012337
1494.99	0.010977
1504.63	0.005647
1514.28	0.003377
1523.92	0.003127
1533.57	0.003777
1543.21	0.005477
1552.86	0.010007
1562.5	0.020887
1572.15	0.049237
1581.79	0.051447
1591.44	0.015837
1601.08	0.006657
1610.73	0.003977
1620.37	0.002607
1630.01	0.002397
1639.66	0.002337
1649.3	0.002497
1658.95	0.002717
1668.59	0.003407
1678.24	0.004777
1687.88	0.005517
1697.53	0.004147
1707.17	0.003817
1716.82	0.003237
1726.46	0.002557
1736.11	0.002407
1745.75	0.002277
1755.4	0.002147
1765.04	0.002077
1774.69	0.002697
1784.33	0.004437
1793.98	0.005087
1803.62	0.004537
1813.27	0.005297
1822.91	0.006387
1832.55	0.006177
1842.2	0.006157
1851.84	0.007167
1861.49	0.008667
1871.13	0.011837
1880.78	0.014287
1890.42	0.013777
1900.07	0.015517
1909.71	0.019147
1919.36	0.020777
1929	0.026757
1938.65	0.039257
1948.29	0.052957
1957.94	0.068917
1967.58	0.094487
1977.23	0.128237
1986.87	0.167487
1996.52	0.213357
2006.16	0.274417
2015.81	0.348087
2025.45	0.432247
2035.1	0.536767
2044.74	0.613217
2054.38	0.552957
2064.03	0.513867
2073.67	0.517377
2083.32	0.487327
2092.96	0.391677
2102.61	0.270997
2112.25	0.199067
2121.9	0.180377
2131.54	0.177177
2141.19	0.147747
2150.83	0.097537
2160.48	0.059887
2170.12	0.045057
2179.77	0.042707
2189.41	0.043087
2199.06	0.035907
2208.7	0.029077
2218.35	0.026017
2227.99	0.020767
2237.64	0.014047
2247.28	0.009537
2256.92	0.007297
2266.57	0.006417
2276.21	0.006297
2285.86	0.006547
2295.5	0.006247
2305.15	0.005387
2314.79	0.005127
2324.44	0.004777
2334.08	0.003757
2343.73	0.002837
2353.37	0.002567
2363.02	0.002447
2372.66	0.002377
2382.31	0.002427
2391.95	0.002347
2401.6	0.002747
2411.24	0.002777
2420.89	0.002797
2430.53	0.003107
2440.18	0.003777
2449.82	0.004677
2459.47	0.005047
2469.11	0.005157
2478.75	0.005607
2488.4	0.006477
2498.04	0.006477
2507.69	0.007017
2517.33	0.007657
2526.98	0.008127
2536.62	0.008247
2546.27	0.008577
2555.91	0.008647
2565.56	0.008837
2575.2	0.009747
2584.85	0.009927
2594.49	0.007737
2604.14	0.004697
2613.78	0.003317
2623.43	0.002597
2633.07	0.002057
2642.72	0.001887
2652.36	0.001867
2662.01	0.001767
2671.65	0.001757
2681.29	0.002097
2690.94	0.002257
2700.58	0.002557
2710.23	0.003047
2719.87	0.003887
2729.52	0.004777
2739.16	0.005527
2748.81	0.006467
2758.45	0.007067
2768.1	0.006627
2777.74	0.004887
2787.39	0.003417
2797.03	0.002677
2806.68	0.002437
2816.32	0.001927
2825.97	0.001497
2835.61	0.0011896
2845.26	0.0009759
2854.9	0.0008179
2864.55	0.0008883
2874.19	0.0008071
2883.84	0.0008647
2893.48	0.0009437
2903.12	0.0010417
2912.77	0.0012367
2922.41	0.0014668
2932.06	0.001507
2941.7	0.001827
2951.35	0.001927
2960.99	0.002187
2970.64	0.002567
2980.28	0.003087
2989.93	0.003497
2999.57	0.003677
3009.22	0.004207
3018.86	0.004267
3028.51	0.003487
3038.15	0.002987
3047.8	0.003277
3057.44	0.008367
3067.09	0.020067
3076.73	0.021927
3086.38	0.011277
3096.02	0.004177
3105.67	0.002307
3115.31	0.002417
3124.95	0.002507
3134.6	0.001887
3144.24	0.0011133
3153.89	0.0008378
3163.53	0.0004516
3173.18	0.0004202
3182.82	0.000332
3192.47	0.000153
3202.11	0.000324
3211.76	0.000101
3221.4	4.7e-05
3231.05	9.4e-05
3240.69	0.000231
3250.34	5.7e-05
3259.98	0.000199
3269.63	0.00032
3279.27	0.000185
3288.92	0.000324
3298.56	0.000188
3308.21	0.000211
3317.85	0.000376
3327.49	0.000276
3337.14	0.000326
3346.78	0.000224
3356.43	0.000332
3366.07	0.000312
3375.72	0.000292
3385.36	0.00032
3395.01	0.000246
3404.65	0.00018
3414.3	0.000196
3423.94	0.000314
3433.59	0.000247
3443.23	0.000304
3452.88	0.000371
3462.52	0.0003815
3472.17	0.0004912
3481.81	0.0004939
3491.46	0.0003965
3501.1	0.000484893
3510.75	0.000338
3520.39	0.0004211
3530.04	0.00053372
3539.68	0.0004592
3549.32	0.0003877
3558.97	0.000376
3568.61	0.000292
3578.26	0.0004086
3587.9	0.0004425
3597.55	0.0004182
3607.19	0.000284
3616.84	0.000293
3626.48	0.0004658
3636.13	0.000322
3645.77	0.00053131
3655.42	0.00056019
3665.06	0.0006406
3674.71	0.0005949
3684.35	0.0004258
3694	0.0005846
3703.64	0.0006589
3713.29	0.0009044
3722.93	0.0007863
3732.58	0.0008533
3742.22	0.0006149
3751.86	0.0005891
3761.51	0.0007263
3771.15	0.0009305
3780.8	0.0007209
3790.44	0.0008561
3800.09	0.0007443
3809.73	0.0007491
3819.38	0.0009719
3829.02	0.000691
3838.67	0.0008612
3848.31	0.0007283
3857.96	0.0008851
3867.6	0.0009147
3877.25	0.0009805
3886.89	0.0010878
3896.54	0.0012193
3906.18	0.0011246
3915.83	0.0009574
3925.47	0.001487
3935.12	0.0014298
3944.76	0.001677
3954.41	0.001727
3964.05	0.001617
3973.69	0.001767
3983.34	0.002067
3992.98	0.002287
