Infrared Spectrum: 4-Bromo-3-chlorophenyl isothiocyanate
Formula: C 7 H 3 Br Cl N S
CAS: 98041-69-1
State: gas
Origin: EPA-IR VAPOR PHASE LIBRARY
1/CM	ABSORBANCE
549.8	0.006778
559.445	0.004128
569.09	0.003188
578.734	0.004308
588.379	0.005438
598.024	0.004548
607.669	0.004138
617.313	0.002878
626.958	0.002658
636.603	0.002168
646.248	0.002898
655.893	0.004108
665.537	0.007648
675.182	0.009698
684.827	0.004718
694.472	0.002848
704.116	0.001988
713.761	0.001998
723.406	0.003668
733.051	0.003308
742.695	0.001848
752.34	0.002768
761.985	0.006158
771.63	0.015478
781.275	0.025278
790.919	0.016618
800.564	0.022158
810.209	0.046948
819.854	0.032598
829.498	0.008708
839.143	0.004418
848.788	0.004358
858.433	0.008808
868.078	0.022768
877.722	0.017618
887.367	0.007228
897.012	0.009028
906.657	0.011818
916.301	0.016388
925.946	0.027078
935.591	0.050148
945.236	0.087858
954.88	0.053978
964.525	0.019158
974.17	0.008898
983.815	0.005688
993.46	0.003768
1003.1	0.003008
1012.75	0.002328
1022.39	0.002218
1032.04	0.002408
1041.68	0.003758
1051.33	0.009328
1060.97	0.026638
1070.62	0.029608
1080.26	0.053108
1089.91	0.059918
1099.55	0.015028
1109.2	0.004968
1118.84	0.004498
1128.49	0.011698
1138.13	0.010558
1147.78	0.004038
1157.42	0.001888
1167.07	0.0006267
1176.71	0.00059621
1186.36	0.0013087
1196	0.001648
1205.64	0.0006816
1215.29	0.0007561
1224.93	0.0007918
1234.58	0.002688
1244.22	0.003898
1253.87	0.004208
1263.51	0.006988
1273.16	0.017288
1282.8	0.015408
1292.45	0.003468
1302.09	0.001858
1311.74	0.0015059
1321.38	0.0011926
1331.03	0.001525
1340.67	0.002108
1350.32	0.003948
1359.96	0.008618
1369.61	0.016778
1379.25	0.021038
1388.9	0.013958
1398.54	0.006318
1408.18	0.007808
1417.83	0.018028
1427.47	0.011408
1437.12	0.008598
1446.76	0.013708
1456.41	0.033068
1466.05	0.137768
1475.7	0.185868
1485.34	0.033258
1494.99	0.019638
1504.63	0.009438
1514.28	0.006298
1523.92	0.005888
1533.57	0.007028
1543.21	0.010518
1552.86	0.014038
1562.5	0.011578
1572.15	0.010408
1581.79	0.009108
1591.44	0.004978
1601.08	0.003638
1610.73	0.003828
1620.37	0.003768
1630.01	0.003258
1639.66	0.002168
1649.3	0.001397
1658.95	0.0013029
1668.59	0.0012865
1678.24	0.0013982
1687.88	0.0013594
1697.53	0.0013765
1707.17	0.001678
1716.82	0.002438
1726.46	0.003958
1736.11	0.005808
1745.75	0.005228
1755.4	0.003838
1765.04	0.003328
1774.69	0.003278
1784.33	0.003158
1793.98	0.003218
1803.62	0.003668
1813.27	0.004418
1822.91	0.005188
1832.55	0.006028
1842.2	0.006778
1851.84	0.008158
1861.49	0.010518
1871.13	0.013928
1880.78	0.017238
1890.42	0.017358
1900.07	0.016368
1909.71	0.017988
1919.36	0.021968
1929	0.028348
1938.65	0.039168
1948.29	0.055278
1957.94	0.074148
1967.58	0.100228
1977.23	0.138588
1986.87	0.193298
1996.52	0.264268
2006.16	0.338668
2015.81	0.410408
2025.45	0.505108
2035.1	0.659318
2044.74	0.756028
2054.38	0.545068
2064.03	0.351998
2073.67	0.293258
2083.32	0.305988
2092.96	0.334828
2102.61	0.310328
2112.25	0.248528
2121.9	0.191438
2131.54	0.150198
2141.19	0.102168
2150.83	0.069368
2160.48	0.055108
2170.12	0.047248
2179.77	0.039808
2189.41	0.034298
2199.06	0.028158
2208.7	0.024308
2218.35	0.023768
2227.99	0.021318
2237.64	0.013298
2247.28	0.008908
2256.92	0.007188
2266.57	0.005958
2276.21	0.005558
2285.86	0.005558
2295.5	0.005728
2305.15	0.006288
2314.79	0.006758
2324.44	0.006838
2334.08	0.006318
2343.73	0.005778
2353.37	0.005238
2363.02	0.004978
2372.66	0.004398
2382.31	0.003778
2391.95	0.003378
2401.6	0.002858
2411.24	0.002978
2420.89	0.002958
2430.53	0.002488
2440.18	0.002378
2449.82	0.002538
2459.47	0.002818
2469.11	0.003338
2478.75	0.003658
2488.4	0.003978
2498.04	0.004048
2507.69	0.004438
2517.33	0.004708
2526.98	0.004848
2536.62	0.005068
2546.27	0.005768
2555.91	0.006048
2565.56	0.005148
2575.2	0.004778
2584.85	0.005798
2594.49	0.007358
2604.14	0.009448
2613.78	0.011638
2623.43	0.012928
2633.07	0.011228
2642.72	0.008148
2652.36	0.005428
2662.01	0.004268
2671.65	0.004108
2681.29	0.003828
2690.94	0.003238
2700.58	0.002898
2710.23	0.002968
2719.87	0.003118
2729.52	0.002908
2739.16	0.002648
2748.81	0.002448
2758.45	0.002508
2768.1	0.002738
2777.74	0.003188
2787.39	0.003378
2797.03	0.003528
2806.68	0.003598
2816.32	0.003518
2825.97	0.003328
2835.61	0.002568
2845.26	0.001908
2854.9	0.0014961
2864.55	0.0012502
2874.19	0.0014951
2883.84	0.001578
2893.48	0.0012631
2903.12	0.0014389
2912.77	0.0014305
2922.41	0.0015323
2932.06	0.001688
2941.7	0.001968
2951.35	0.002098
2960.99	0.002518
2970.64	0.002748
2980.28	0.003498
2989.93	0.003688
2999.57	0.003078
3009.22	0.002248
3018.86	0.002008
3028.51	0.001878
3038.15	0.001748
3047.8	0.0015346
3057.44	0.0015477
3067.09	0.002798
3076.73	0.002848
3086.38	0.0014983
3096.02	0.0010751
3105.67	0.0007014
3115.31	0.00059626
3124.95	0.0005345
3134.6	0.0005247
3144.24	0.000433
3153.89	0.000376
3163.53	0.000333
3173.18	0.000206
3182.82	0.000202
3192.47	7.6e-05
3202.11	0.000142
3211.76	0.000287
3221.4	7.5e-05
3231.05	0.00022
3240.69	0.000191
3250.34	0.00037
3259.98	0.000172
3269.63	4.1e-05
3279.27	0.000168
3288.92	0.00029
3298.56	0.000362
3308.21	4.5e-05
3317.85	0.000326
3327.49	0.000296
3337.14	0.000209
3346.78	0.00028
3356.43	0.000236
3366.07	0.000188
3375.72	0.000265
3385.36	0.0004983
3395.01	0.000371
3404.65	0.000204
3414.3	0.000358
3423.94	0.000459
3433.59	0.000347
3443.23	0.000354
3452.88	0.000451
3462.52	0.00060381
3472.17	0.000413
3481.81	0.000224
3491.46	0.0005276
3501.1	0.0004721
3510.75	0.000571796
3520.39	0.0005068
3530.04	0.000427
3539.68	0.0004719
3549.32	0.000403
3558.97	0.000453
3568.61	0.000385
3578.26	0.0004754
3587.9	0.000411
3597.55	0.0004869
3607.19	0.00059831
3616.84	0.000372
3626.48	0.000377
3636.13	0.0004781
3645.77	0.000371
3655.42	0.00034
3665.06	0.0005019
3674.71	0.0005218
3684.35	0.000466
3694	0.00062223
3703.64	0.0005322
3713.29	0.0004779
3722.93	0.0005025
3732.58	0.0007588
3742.22	0.0008433
3751.86	0.0007905
3761.51	0.0008976
3771.15	0.0008963
3780.8	0.0008278
3790.44	0.0008528
3800.09	0.0006865
3809.73	0.0007446
3819.38	0.0008062
3829.02	0.0008844
3838.67	0.0011943
3848.31	0.0011287
3857.96	0.0010408
3867.6	0.0010281
3877.25	0.0009997
3886.89	0.0012759
3896.54	0.0012372
3906.18	0.0012315
3915.83	0.0013894
3925.47	0.0014076
3935.12	0.0014915
3944.76	0.001598
3954.41	0.0014594
3964.05	0.001768
3973.69	0.002218
3983.34	0.002028
3992.98	0.002558
