Infrared Spectrum: O-NITRO CARBANILIC ACID, ISOPULEGOL ESTER
Formula: C17 H22 N2 O4
CAS: 98074-68-1
State: SOLID (2.2 mg / 100 mg KBr)
Class: COBLENTZ
Instrument: Not specified, most likely a grating spectrometer.
Sampling: TRANSMISSION
Resolution: 4
Origin: CITRUS EXPERIMENT STATION, UNIVERSITY OF FLORIDA (G. EDWARDS)
MICROMETERS	TRANSMITTANCE
2.093	0.7
2.12617	0.71
2.15935	0.711
2.19252	0.712
2.2257	0.712
2.25887	0.714
2.29205	0.718
2.32522	0.731
2.35839	0.735
2.39157	0.743
2.42474	0.748
2.45792	0.76
2.49109	0.768
2.52427	0.773
2.55744	0.779
2.59062	0.792
2.62379	0.785
2.65696	0.797
2.69014	0.801
2.72331	0.804
2.75649	0.807
2.78966	0.807
2.82284	0.807
2.85601	0.801
2.88918	0.791
2.92236	0.72
2.95553	0.453
2.98871	0.311
3.02188	0.724
3.05506	0.789
3.08823	0.812
3.12141	0.816
3.15458	0.805
3.18775	0.736
3.22093	0.743
3.2541	0.664
3.28728	0.792
3.32045	0.792
3.35363	0.473
3.3868	0.215
3.41997	0.359
3.45315	0.406
3.48632	0.452
3.5195	0.702
3.55267	0.76
3.58585	0.785
3.61902	0.807
3.65219	0.809
3.68537	0.832
3.71854	0.84
3.75172	0.841
3.78489	0.849
3.81807	0.852
3.85124	0.851
3.88442	0.859
3.91759	0.867
3.95076	0.867
3.98394	0.878
4.01711	0.876
4.05029	0.865
4.08346	0.872
4.11664	0.871
4.14981	0.871
4.18298	0.88
4.21616	0.889
4.24933	0.901
4.28251	0.901
4.31568	0.906
4.34886	0.902
4.38203	0.892
4.41521	0.901
4.44838	0.893
4.48155	0.885
4.51473	0.9
4.5479	0.908
4.58108	0.914
4.61425	0.914
4.64743	0.924
4.6806	0.92
4.71377	0.924
4.74695	0.929
4.78012	0.93
4.8133	0.932
4.84647	0.932
4.87965	0.934
4.91282	0.936
4.94599	0.932
4.97917	0.934
5.01234	0.94
5.04552	0.93
5.07869	0.901
5.11187	0.917
5.14504	0.888
5.17822	0.914
5.21139	0.914
5.24456	0.928
5.27774	0.922
5.31091	0.921
5.34409	0.91
5.37726	0.902
5.41044	0.878
5.44361	0.861
5.47678	0.789
5.50996	0.812
5.54313	0.795
5.57631	0.772
5.60948	0.728
5.64266	0.642
5.67583	0.412
5.70901	0.132
5.74218	0.062
5.77535	0.18
5.80853	0.501
5.8417	0.648
5.87488	0.753
5.90805	0.764
5.94123	0.804
5.9744	0.789
6.00757	0.755
6.04075	0.631
6.07392	0.63
6.1071	0.599
6.14027	0.433
6.17345	0.158
6.20662	0.186
6.23979	0.382
6.27297	0.321
6.30614	0.074
6.33932	0.389
6.37249	0.597
6.40567	0.591
6.43884	0.546
6.47202	0.401
6.50519	0.331
6.53836	0.099
6.57154	0.018
6.60471	0.027
6.63789	0.039
6.67106	0.111
6.70424	0.291
6.73741	0.388
6.77058	0.511
6.80376	0.465
6.83693	0.214
6.87011	0.097
6.90328	0.167
6.93646	0.109
6.96963	0.055
7.00281	0.062
7.03598	0.186
7.06915	0.25
7.10233	0.331
7.1355	0.401
7.16868	0.382
7.20185	0.378
7.23503	0.437
7.2682	0.449
7.30137	0.454
7.33455	0.48
7.36772	0.38
7.4009	0.164
7.43407	0.026
7.46725	0.083
7.50042	0.223
7.53359	0.293
7.56677	0.154
7.59994	0.232
7.63312	0.327
7.66629	0.341
7.69947	0.375
7.73264	0.352
7.76582	0.304
7.79899	0.248
7.83216	0.16
7.86534	0.199
7.89851	0.291
7.93169	0.283
7.96486	0.147
7.99804	0.005
8.03121	0
8.06438	0.003
8.09756	0.047
8.13073	0.179
8.16391	0.327
8.19708	0.351
8.23026	0.268
8.26343	0.167
8.29661	0.043
8.32978	0.003
8.36295	0.042
8.39613	0.099
8.4293	0.231
8.46248	0.222
8.49565	0.3
8.52883	0.453
8.562	0.449
8.59517	0.382
8.62835	0.311
8.66152	0.328
8.6947	0.311
8.72787	0.176
8.76105	0.316
8.79422	0.341
8.82739	0.186
8.86057	0.297
8.89374	0.432
8.92692	0.562
8.96009	0.61
8.99327	0.613
9.02644	0.622
9.05962	0.619
9.09279	0.59
9.12596	0.464
9.15914	0.267
9.19231	0.131
9.22549	0.187
9.25866	0.378
9.29184	0.489
9.32501	0.529
9.35818	0.569
9.39136	0.63
9.42453	0.615
9.45771	0.526
9.49088	0.381
9.52406	0.283
9.55723	0.167
9.59041	0.083
9.62358	0.067
9.65675	0.099
9.68993	0.257
9.7231	0.422
9.75628	0.519
9.78945	0.579
9.82263	0.599
9.8558	0.578
9.88897	0.565
9.92215	0.644
9.95532	0.695
9.9885	0.723
10.0217	0.748
10.0548	0.739
10.088	0.678
10.1212	0.57
10.1544	0.65
10.1875	0.651
10.2207	0.591
10.2539	0.393
10.2871	0.143
10.3202	0.166
10.3534	0.174
10.3866	0.288
10.4198	0.398
10.4529	0.453
10.4861	0.525
10.5193	0.627
10.5525	0.69
10.5856	0.719
10.6188	0.726
10.652	0.719
10.6852	0.668
10.7183	0.59
10.7515	0.466
10.7847	0.529
10.8179	0.651
10.851	0.724
10.8842	0.75
10.9174	0.768
10.9506	0.784
10.9837	0.789
11.0169	0.783
11.0501	0.768
11.0833	0.715
11.1164	0.551
11.1496	0.406
11.1828	0.456
11.2159	0.546
11.2491	0.319
11.2823	0.151
11.3155	0.303
11.3486	0.514
11.3818	0.64
11.415	0.706
11.4482	0.723
11.4813	0.674
11.5145	0.534
11.5477	0.401
11.5809	0.413
11.614	0.549
11.6472	0.59
11.6804	0.663
11.7136	0.73
11.7467	0.769
11.7799	0.779
11.8131	0.781
11.8463	0.783
11.8794	0.785
11.9126	0.784
11.9458	0.763
11.979	0.726
12.0121	0.601
12.0453	0.469
12.0785	0.409
12.1117	0.458
12.1448	0.565
12.178	0.648
12.2112	0.686
12.2444	0.688
12.2775	0.747
12.3107	0.783
12.3439	0.8
12.3771	0.811
12.4102	0.821
12.4434	0.828
12.4766	0.831
12.5097	0.828
12.5429	0.827
12.5761	0.836
12.6093	0.84
12.6424	0.825
12.6756	0.812
12.7088	0.783
12.742	0.719
12.7751	0.534
12.8083	0.231
12.8415	0.315
12.8747	0.529
12.9078	0.683
12.941	0.743
12.9742	0.734
13.0074	0.614
13.0405	0.442
13.0737	0.388
13.1069	0.5
13.1401	0.597
13.1732	0.68
13.2064	0.72
13.2396	0.759
13.2728	0.787
13.3059	0.804
13.3391	0.804
13.3723	0.789
13.4055	0.74
13.4386	0.594
13.4718	0.353
13.505	0.128
13.5382	0.106
13.5713	0.252
13.6045	0.44
13.6377	0.553
13.6709	0.639
13.704	0.698
13.7372	0.724
13.7704	0.752
13.8035	0.76
13.8367	0.769
13.8699	0.764
13.9031	0.757
13.9362	0.753
13.9694	0.755
14.0026	0.771
14.0358	0.775
14.0689	0.783
14.1021	0.791
14.1353	0.791
14.1685	0.791
14.2016	0.789
14.2348	0.779
14.268	0.768
14.3012	0.744
14.3343	0.734
14.3675	0.72
14.4007	0.687
14.4339	0.654
14.467	0.594
14.5002	0.506
14.5334	0.442
14.5666	0.401
14.5997	0.392
14.6329	0.375
14.6661	0.36
14.6993	0.36
14.7324	0.359
14.7656	0.356
14.7988	0.337
14.832	0.331
14.8651	0.325
14.8983	0.328
14.9315	0.329
14.9647	0.339
14.9978	0.345
15.031	0.344
