Infrared Spectrum: 5-AMINO-6-CHLORO-4-ETHYLAMINOPYRIMIDINE
Formula: C6 H9 Cl N4
CAS: 98140-03-5
State: SOLID (0.8 mg / 650 KBr DISC)
Class: COBLENTZ III
Instrument: PERKIN-ELMER 21 (GRATING)
Instrument parameters: FILTER CHANGE AT ABOUT 1085 CM^-^1.
Sampling: TRANSMISSION
Resolution: 2
Origin: SOUTHERN RESEARCH INSTITUTE
1/CM	TRANSMITTANCE
602.848	0.892
611.998	0.893
621.149	0.8939
630.299	0.898
639.449	0.898
648.6	0.894
657.75	0.8905
666.9	0.8873
676.051	0.8797
685.201	0.8753
694.351	0.8584
703.502	0.8494
712.652	0.8182
721.802	0.715
730.953	0.7118
740.103	0.7683
749.253	0.7676
758.404	0.7543
767.554	0.7128
776.704	0.6251
785.855	0.7311
795.005	0.7026
804.155	0.71
813.306	0.7048
822.456	0.6958
831.606	0.6618
840.757	0.6219
849.907	0.5203
859.057	0.5216
868.208	0.6734
877.358	0.6685
886.508	0.667
895.659	0.7092
904.809	0.732
913.959	0.7256
923.11	0.6993
932.26	0.6152
941.41	0.638
950.561	0.6282
959.711	0.5027
968.861	0.5406
978.012	0.7025
987.162	0.736
996.312	0.735
1005.46	0.7327
1014.61	0.7287
1023.76	0.7235
1032.91	0.7086
1042.06	0.6888
1051.21	0.6786
1060.36	0.6535
1069.52	0.588
1078.67	0.651
1087.82	0.6567
1096.97	0.6283
1106.12	0.5561
1115.27	0.5253
1124.42	0.4581
1133.57	0.4839
1142.72	0.643
1151.87	0.6755
1161.02	0.693
1170.17	0.681
1179.32	0.668
1188.47	0.6302
1197.62	0.613
1206.77	0.5474
1215.92	0.6383
1225.07	0.5587
1234.22	0.4614
1243.37	0.6398
1252.52	0.7099
1261.67	0.7142
1270.82	0.6938
1279.97	0.6787
1289.12	0.6613
1298.27	0.6265
1307.42	0.5488
1316.57	0.5383
1325.72	0.6461
1334.87	0.5896
1344.03	0.4478
1353.18	0.487
1362.33	0.4619
1371.48	0.646
1380.63	0.6028
1389.78	0.4872
1398.93	0.4764
1408.08	0.563
1417.23	0.5148
1426.38	0.4383
1435.53	0.3021
1444.68	0.4218
1453.83	0.4679
1462.98	0.3218
1472.13	0.3384
1481.28	0.512
1490.43	0.5547
1499.58	0.5159
1508.73	0.431
1517.88	0.4577
1527.03	0.591
1536.18	0.5844
1545.33	0.4604
1554.48	0.3969
1563.63	0.2641
1572.78	0.2094
1581.93	0.1643
1591.08	0.161
1600.23	0.2279
1609.38	0.3732
1618.54	0.4863
1627.69	0.5153
1636.84	0.4856
1645.99	0.3935
1655.14	0.377
1664.29	0.4186
1673.44	0.5446
1682.59	0.63
1691.74	0.6918
1700.89	0.7368
1710.04	0.7618
1719.19	0.7703
1728.34	0.784
1737.49	0.7843
1746.64	0.7945
1755.79	0.8112
1764.94	0.815
1774.09	0.8149
1783.24	0.8109
1792.39	0.806
1801.54	0.811
1810.69	0.811
1819.84	0.806
1828.99	0.802
1838.14	0.793
1847.29	0.785
1856.44	0.7955
1865.59	0.7933
1874.74	0.7927
1883.89	0.798
1893.05	0.792
1902.2	0.7874
1911.35	0.785
1920.5	0.785
1929.65	0.784
1938.8	0.7821
1947.95	0.7796
1957.1	0.779
1966.25	0.779
1975.4	0.7747
1984.55	0.775
1993.7	0.775
2002.85	0.7678
2012	0.763
2021.15	0.761
2030.3	0.759
2039.45	0.758
2048.6	0.7538
2057.75	0.754
2066.9	0.7566
2076.05	0.7553
2085.2	0.757
2094.35	0.753
2103.5	0.7502
2112.65	0.7498
2121.8	0.746
2130.95	0.746
2140.1	0.741
2149.25	0.7402
2158.41	0.741
2167.56	0.7408
2176.71	0.736
2185.86	0.7346
2195.01	0.735
2204.16	0.735
2213.31	0.733
2222.46	0.732
2231.61	0.728
2240.76	0.7306
2249.91	0.7272
2259.06	0.725
2268.21	0.723
2277.36	0.719
2286.51	0.714
2295.66	0.714
2304.81	0.711
2313.96	0.709
2323.11	0.7068
2332.26	0.6996
2341.41	0.696
2350.56	0.693
2359.71	0.6866
2368.86	0.6854
2378.01	0.689
2387.16	0.689
2396.31	0.6882
2405.46	0.689
2414.61	0.6838
2423.76	0.6798
2432.92	0.674
2442.07	0.674
2451.22	0.676
2460.37	0.679
2469.52	0.6792
2478.67	0.679
2487.82	0.676
2496.97	0.672
2506.12	0.672
2515.27	0.671
2524.42	0.667
2533.57	0.663
2542.72	0.663
2551.87	0.662
2561.02	0.661
2570.17	0.661
2579.32	0.6588
2588.47	0.659
2597.62	0.6481
2606.77	0.644
2615.92	0.645
2625.07	0.649
2634.22	0.65
2643.37	0.649
2652.52	0.646
2661.67	0.642
2670.82	0.64
2679.97	0.6378
2689.12	0.633
2698.27	0.629
2707.43	0.6266
2716.58	0.6198
2725.73	0.614
2734.88	0.6108
2744.03	0.607
2753.18	0.6046
2762.33	0.602
2771.48	0.6008
2780.63	0.598
2789.78	0.5928
2798.93	0.5878
2808.08	0.5835
2817.23	0.5758
2826.38	0.5673
2835.53	0.5558
2844.68	0.5376
2853.83	0.5158
2862.98	0.5058
2872.13	0.502
2881.28	0.4996
2890.43	0.4968
2899.58	0.4915
2908.73	0.4846
2917.88	0.4708
2927.03	0.451
2936.18	0.449
2945.33	0.4488
2954.48	0.4416
2963.63	0.4133
2972.78	0.398
2981.94	0.4201
2991.09	0.4627
3000.24	0.471
3009.39	0.464
3018.54	0.464
3027.69	0.464
3036.84	0.457
3045.99	0.4526
3055.14	0.4477
3064.29	0.446
3073.44	0.4492
3082.59	0.4572
3091.74	0.4632
3100.89	0.466
3110.04	0.466
3119.19	0.464
3128.34	0.463
3137.49	0.4546
3146.64	0.445
3155.79	0.4408
3164.94	0.435
3174.09	0.433
3183.24	0.4305
3192.39	0.4108
3201.54	0.3977
3210.69	0.383
3219.84	0.3766
3228.99	0.366
3238.14	0.362
3247.29	0.363
3256.45	0.372
3265.6	0.3899
3274.75	0.4034
3283.9	0.4092
3293.05	0.406
3302.2	0.4008
3311.35	0.3913
3320.5	0.3768
3329.65	0.3626
3338.8	0.3441
3347.95	0.3215
3357.1	0.311
3366.25	0.3142
3375.4	0.3222
3384.55	0.3507
3393.7	0.377
3402.85	0.3922
3412	0.396
3421.15	0.3972
3430.3	0.4261
3439.45	0.4491
3448.6	0.5122
3457.75	0.5521
3466.9	0.5797
3476.05	0.5935
3485.2	0.598
3494.35	0.601
3503.5	0.6034
3512.65	0.607
3521.81	0.6124
3530.96	0.614
3540.11	0.615
3549.26	0.616
3558.41	0.6192
3567.56	0.628
3576.71	0.631
3585.86	0.6352
3595.01	0.645
3604.16	0.648
3613.31	0.649
3622.46	0.648
3631.61	0.6442
3640.76	0.6492
3649.91	0.6514
3659.06	0.654
3668.21	0.657
3677.36	0.657
3686.51	0.657
3695.66	0.657
3704.81	0.658
3713.96	0.654
3723.11	0.6553
3732.26	0.657
3741.41	0.6508
3750.56	0.6476
3759.71	0.648
3768.86	0.645
3778.01	0.644
3787.16	0.644
3796.32	0.641
3805.47	0.6378
3814.62	0.6358
3823.77	0.632
3832.92	0.6318
3842.07	0.629
3851.22	0.629
3860.37	0.629
3869.52	0.628
3878.67	0.628
3887.82	0.629
3896.97	0.629
3906.12	0.628
3915.27	0.625
3924.42	0.6238
3933.57	0.622
3942.72	0.623
3951.87	0.619
3961.02	0.6238
3970.17	0.627
3979.32	0.628
3988.47	0.6215
3997.62	0.6145
4006.77	0.6045
