Infrared Spectrum: 4,4'-Dimethyldibenzylamine
Formula: C 16 H 19 N
CAS: 98180-43-9
State: gas
Origin: EPA-IR VAPOR PHASE LIBRARY
1/CM	ABSORBANCE
549.8	0.06494
559.445	0.06011
569.09	0.0669
578.734	0.07093
588.379	0.05104
598.024	0.03903
607.669	0.03903
617.313	0.04323
626.958	0.05076
636.603	0.0618
646.248	0.06867
655.893	0.07558
665.537	0.0814
675.182	0.08216
684.827	0.07732
694.472	0.06682
704.116	0.06532
713.761	0.06484
723.406	0.06497
733.051	0.07789
742.695	0.10087
752.34	0.12253
761.985	0.13118
771.63	0.13159
781.275	0.15431
790.919	0.22392
800.564	0.35693
810.209	0.3779
819.854	0.20227
829.498	0.13449
839.143	0.12955
848.788	0.08358
858.433	0.05328
868.078	0.04048
877.722	0.03248
887.367	0.02876
897.012	0.02827
906.657	0.03163
916.301	0.03406
925.946	0.03964
935.591	0.05373
945.236	0.04953
954.88	0.04611
964.525	0.04434
974.17	0.03986
983.815	0.03814
993.46	0.03899
1003.1	0.0397
1012.75	0.07308
1022.39	0.13922
1032.04	0.05559
1041.68	0.05507
1051.33	0.05398
1060.97	0.05159
1070.62	0.05801
1080.26	0.07719
1089.91	0.12617
1099.55	0.22388
1109.2	0.31737
1118.84	0.23897
1128.49	0.12921
1138.13	0.07859
1147.78	0.05329
1157.42	0.0435
1167.07	0.05261
1176.71	0.13046
1186.36	0.09517
1196	0.09609
1205.64	0.07671
1215.29	0.05752
1224.93	0.05413
1234.58	0.05708
1244.22	0.04775
1253.87	0.041
1263.51	0.04106
1273.16	0.04604
1282.8	0.05417
1292.45	0.06894
1302.09	0.09763
1311.74	0.10132
1321.38	0.10076
1331.03	0.12755
1340.67	0.14046
1350.32	0.14711
1359.96	0.14216
1369.61	0.09212
1379.25	0.0752
1388.9	0.0661
1398.54	0.06455
1408.18	0.08416
1417.83	0.10864
1427.47	0.12029
1437.12	0.16068
1446.76	0.25935
1456.41	0.25693
1466.05	0.16869
1475.7	0.10932
1485.34	0.09105
1494.99	0.11506
1504.63	0.22105
1514.28	0.38254
1523.92	0.15991
1533.57	0.06158
1543.21	0.04297
1552.86	0.03518
1562.5	0.03332
1572.15	0.03613
1581.79	0.03432
1591.44	0.03402
1601.08	0.04079
1610.73	0.05262
1620.37	0.05556
1630.01	0.0526
1639.66	0.06501
1649.3	0.10432
1658.95	0.06288
1668.59	0.02472
1678.24	0.01571
1687.88	0.01196
1697.53	0.01002
1707.17	0.00928
1716.82	0.00933
1726.46	0.01067
1736.11	0.01277
1745.75	0.0146
1755.4	0.01595
1765.04	0.01735
1774.69	0.02199
1784.33	0.03333
1793.98	0.0282
1803.62	0.01438
1813.27	0.00984
1822.91	0.00868
1832.55	0.0089
1842.2	0.01043
1851.84	0.01295
1861.49	0.01674
1871.13	0.02271
1880.78	0.03011
1890.42	0.03686
1900.07	0.03164
1909.71	0.02044
1919.36	0.01411
1929	0.01069
1938.65	0.0088
1948.29	0.00795
1957.94	0.00747
1967.58	0.00689
1977.23	0.00651
1986.87	0.00604
1996.52	0.00555
2006.16	0.00557
2015.81	0.00532
2025.45	0.00486
2035.1	0.0047
2044.74	0.00449
2054.38	0.00432
2064.03	0.00446
2073.67	0.00483
2083.32	0.00485
2092.96	0.00469
2102.61	0.00451
2112.25	0.00443
2121.9	0.00466
2131.54	0.0049
2141.19	0.0051
2150.83	0.00524
2160.48	0.00497
2170.12	0.00479
2179.77	0.0048
2189.41	0.0047
2199.06	0.00468
2208.7	0.00483
2218.35	0.00472
2227.99	0.00453
2237.64	0.00435
2247.28	0.00427
2256.92	0.00416
2266.57	0.00438
2276.21	0.00497
2285.86	0.00609
2295.5	0.00779
2305.15	0.00771
2314.79	0.00655
2324.44	0.00608
2334.08	0.00588
2343.73	0.00567
2353.37	0.0056
2363.02	0.00572
2372.66	0.00556
2382.31	0.00568
2391.95	0.00573
2401.6	0.00591
2411.24	0.00618
2420.89	0.00624
2430.53	0.0061
2440.18	0.006
2449.82	0.0057
2459.47	0.00557
2469.11	0.00547
2478.75	0.00561
2488.4	0.00547
2498.04	0.00553
2507.69	0.00577
2517.33	0.0061
2526.98	0.00611
2536.62	0.00616
2546.27	0.00623
2555.91	0.00657
2565.56	0.00772
2575.2	0.00949
2584.85	0.01151
2594.49	0.01164
2604.14	0.01055
2613.78	0.01015
2623.43	0.01094
2633.07	0.01189
2642.72	0.01196
2652.36	0.01266
2662.01	0.0138
2671.65	0.01547
2681.29	0.0178
2690.94	0.02037
2700.58	0.02276
2710.23	0.02495
2719.87	0.02835
2729.52	0.03486
2739.16	0.04777
2748.81	0.04734
2758.45	0.04547
2768.1	0.0532
2777.74	0.06692
2787.39	0.08877
2797.03	0.1233
2806.68	0.17361
2816.32	0.23359
2825.97	0.26633
2835.61	0.2522
2845.26	0.22473
2854.9	0.21502
2864.55	0.2447
2874.19	0.30166
2883.84	0.30874
2893.48	0.28525
2903.12	0.27566
2912.77	0.3132
2922.41	0.43015
2932.06	0.516
2941.7	0.35819
2951.35	0.2005
2960.99	0.14105
2970.64	0.12921
2980.28	0.15192
2989.93	0.19213
2999.57	0.24507
3009.22	0.31404
3018.86	0.43619
3028.51	0.44974
3038.15	0.29967
3047.8	0.28958
3057.44	0.25181
3067.09	0.1712
3076.73	0.12346
3086.38	0.10097
3096.02	0.08088
3105.67	0.05516
3115.31	0.03808
3124.95	0.03163
3134.6	0.02688
3144.24	0.01666
3153.89	0.00971
3163.53	0.00695
3173.18	0.00553
3182.82	0.00486
3192.47	0.00433
3202.11	0.00389
3211.76	0.00379
3221.4	0.00372
3231.05	0.00351
3240.69	0.00312
3250.34	0.00314
3259.98	0.00326
3269.63	0.00334
3279.27	0.0039
3288.92	0.00396
3298.56	0.00353
3308.21	0.00333
3317.85	0.00326
3327.49	0.00321
3337.14	0.00353
3346.78	0.00401
3356.43	0.0044
3366.07	0.00482
3375.72	0.00462
3385.36	0.00406
3395.01	0.00361
3404.65	0.00327
3414.3	0.00273
3423.94	0.00274
3433.59	0.00268
3443.23	0.00227
3452.88	0.00162
3462.52	0.00132
3472.17	0.00136
3481.81	0.00126
3491.46	0.0012
3501.1	0.00113
3510.75	0.00114
3520.39	0.0009263
3530.04	0.00121
3539.68	0.00123
3549.32	0.00125
3558.97	0.00132
3568.61	0.00118
3578.26	0.00137
3587.9	0.00125
3597.55	0.00147
3607.19	0.00147
3616.84	0.00173
3626.48	0.00173
3636.13	0.00216
3645.77	0.00264
3655.42	0.00338
3665.06	0.0042
3674.71	0.00378
3684.35	0.00314
3694	0.00301
3703.64	0.00253
3713.29	0.00209
3722.93	0.00211
3732.58	0.00234
3742.22	0.00211
3751.86	0.00225
3761.51	0.00269
3771.15	0.00279
3780.8	0.00296
3790.44	0.00305
3800.09	0.003
3809.73	0.00313
3819.38	0.00349
3829.02	0.00386
3838.67	0.00392
3848.31	0.00409
3857.96	0.00417
3867.6	0.00427
3877.25	0.00434
3886.89	0.00411
3896.54	0.00427
3906.18	0.00431
3915.83	0.00434
3925.47	0.00444
3935.12	0.00413
3944.76	0.00388
3954.41	0.00385
3964.05	0.00382
3973.69	0.00395
3983.34	0.00353
3992.98	0.00387
