Infrared Spectrum: Oxadiazole, 1,3,4-, 2-methylthio-5-(5-nitro-2-furyl)-,
Formula: C7 H5 N3 O4 S
CAS: 98273-49-5
State: SOLUTION (1.75% CHCl3 FOR 2.5-12.2 MICRON) VS SOLVENT
Class: COBLENTZ
Instrument: PERKIN-ELMER 21 (GRATING)
Instrument parameters: FILTER AT ABOUT 10 MICRONS
Path length: 0.03 CM
Resolution: 2
Origin: ABBOTT LABORATORIES
1/CM	TRANSMITTANCE
820	0.8529
828	0.9061
836	0.9079
844	0.913
852	0.9123
860	0.9146
868	0.9107
876	0.9022
884	0.8934
892	0.8827
900	0.8504
908	0.6527
916	0.9003
924	0.9204
932	0.9195
940	0.8767
948	0.7666
956	0.7429
964	0.4158
972	0.6498
980	0.6619
988	0.8156
996	0.7946
1004	0.5888
1012	0.437
1020	0.7225
1028	0.8546
1036	0.8588
1044	0.8584
1052	0.8533
1060	0.8373
1068	0.8188
1076	0.7925
1084	0.7154
1092	0.5424
1100	0.6071
1108	0.7595
1116	0.8237
1124	0.8302
1132	0.8254
1140	0.8159
1148	0.7932
1156	0.7341
1164	0.6216
1172	0.607
1180	0.7396
1188	0.7905
1196	0.7951
1204	0.7961
1212	0.7967
1220	0.795
1228	0.7948
1236	0.7963
1244	0.8186
1252	0.8294
1260	0.8258
1268	0.8172
1276	0.8058
1284	0.738
1292	0.6129
1300	0.3797
1308	0.4233
1316	0.4363
1324	0.5694
1332	0.3837
1340	0.1532
1348	0.0672
1356	0.3934
1364	0.5051
1372	0.2127
1380	0.6265
1388	0.6955
1396	0.6961
1404	0.7004
1412	0.6386
1420	0.6206
1428	0.6107
1436	0.5102
1444	0.1723
1452	0.0972
1460	0.295
1468	0.4625
1476	0.5713
1484	0.4054
1492	0.5853
1500	0.5174
1508	0.3642
1516	0.2636
1524	0.2656
1532	0.5602
1540	0.6393
1548	0.5402
1556	0.3822
1564	0.5885
1572	0.7761
1580	0.8296
1588	0.8371
1596	0.8328
1604	0.8207
1612	0.8037
1620	0.8149
1628	0.8334
1636	0.8525
1644	0.8596
1652	0.8586
1660	0.8545
1668	0.8539
1676	0.873
1684	0.8871
1692	0.8953
1700	0.9004
1708	0.9027
1716	0.9032
1724	0.9019
1732	0.9084
1740	0.906
1748	0.9029
1756	0.8941
1764	0.8901
1772	0.8962
1780	0.9088
1788	0.914
1796	0.9148
1804	0.9151
1812	0.9152
1820	0.9157
1828	0.9164
1836	0.9173
1844	0.9181
1852	0.9187
1860	0.9193
1868	0.9197
1876	0.9197
1884	0.919
1892	0.9179
1900	0.9168
1908	0.9158
1916	0.9148
1924	0.9139
1932	0.9129
1940	0.9106
1948	0.9085
1956	0.9072
1964	0.9061
1972	0.9062
1980	0.9063
1988	0.9065
1996	0.9071
2004	0.9077
2012	0.9084
2020	0.9088
2028	0.9091
2036	0.9095
2044	0.9097
2052	0.91
2060	0.9104
2068	0.9109
2076	0.9114
2084	0.912
2092	0.9125
2100	0.9131
2108	0.9137
2116	0.9142
2124	0.9146
2132	0.9148
2140	0.9151
2148	0.9154
2156	0.9156
2164	0.9157
2172	0.9157
2180	0.9156
2188	0.9156
2196	0.9156
2204	0.9153
2212	0.9148
2220	0.9142
2228	0.9137
2236	0.9131
2244	0.9123
2252	0.9115
2260	0.9107
2268	0.9096
2276	0.9086
2284	0.9075
2292	0.9064
2300	0.9058
2308	0.9052
2316	0.9045
2324	0.9034
2332	0.9023
2340	0.9011
2348	0.9014
2356	0.9021
2364	0.9024
2372	0.9013
2380	0.8987
2388	0.8961
2396	0.8936
2404	0.8917
2412	0.8908
2420	0.891
2428	0.8914
2436	0.8929
2444	0.8951
2452	0.8964
2460	0.8973
2468	0.8981
2476	0.8987
2484	0.8993
2492	0.8997
2500	0.9002
2508	0.9005
2516	0.9004
2524	0.9002
2532	0.9
2540	0.8998
2548	0.8996
2556	0.8994
2564	0.8992
2572	0.8989
2580	0.8984
2588	0.8979
2596	0.8975
2604	0.8971
2612	0.8967
2620	0.8963
2628	0.8958
2636	0.8954
2644	0.895
2652	0.8945
2660	0.8941
2668	0.8937
2676	0.8932
2684	0.8925
2692	0.8919
2700	0.8912
2708	0.8906
2716	0.8899
2724	0.8893
2732	0.8884
2740	0.8872
2748	0.8861
2756	0.8849
2764	0.8837
2772	0.8826
2780	0.8814
2788	0.8801
2796	0.8796
2804	0.8805
2812	0.8816
2820	0.881
2828	0.8772
2836	0.8729
2844	0.8686
2852	0.8644
2860	0.8605
2868	0.8568
2876	0.853
2884	0.8492
2892	0.8455
2900	0.8418
2908	0.8382
2916	0.8346
2924	0.8309
2932	0.8274
2940	0.8235
2948	0.8195
2956	0.8156
2964	0.8138
2972	0.8126
2980	0.8119
2988	0.812
2996	0.8122
3004	0.8126
3012	0.8132
3020	0.8139
3028	0.8138
3036	0.8138
3044	0.8138
3052	0.8137
3060	0.813
3068	0.8118
3076	0.8103
3084	0.8088
3092	0.8075
3100	0.8064
3108	0.8053
3116	0.8035
3124	0.8024
3132	0.804
3140	0.8068
3148	0.8114
3156	0.8275
3164	0.84
3172	0.8512
3180	0.8638
3188	0.8759
3196	0.8853
3204	0.8903
3212	0.893
3220	0.8939
3228	0.8948
3236	0.8951
3244	0.895
3252	0.895
3260	0.8948
3268	0.8944
3276	0.894
3284	0.8935
3292	0.8923
3300	0.8911
3308	0.8898
3316	0.8885
3324	0.887
3332	0.8857
3340	0.8844
3348	0.8831
3356	0.8818
3364	0.8807
3372	0.8794
3380	0.8783
3388	0.8778
3396	0.8773
3404	0.8768
3412	0.8769
3420	0.8759
3428	0.8781
3436	0.8788
3444	0.8796
3452	0.8805
3460	0.8815
3468	0.8824
3476	0.8838
3484	0.8857
3492	0.8875
3500	0.8896
3508	0.892
3516	0.8943
3524	0.8965
3532	0.8986
3540	0.9005
3548	0.9025
3556	0.9042
3564	0.9053
3572	0.9064
3580	0.9075
3588	0.9083
3596	0.9084
3604	0.9084
3612	0.9084
3620	0.9085
3628	0.9085
3636	0.9084
3644	0.9083
3652	0.9082
3660	0.9081
3668	0.908
3676	0.908
3684	0.9079
3692	0.9078
3700	0.9078
3708	0.9077
3716	0.9077
3724	0.9076
3732	0.9076
3740	0.9077
3748	0.9077
3756	0.9077
3764	0.9078
3772	0.9078
3780	0.9078
3788	0.9079
3796	0.9079
3804	0.908
3812	0.9081
3820	0.9081
3828	0.9082
3836	0.9083
3844	0.9083
3852	0.9084
3860	0.9085
3868	0.9085
3876	0.9086
3884	0.9087
3892	0.9087
3900	0.9086
3908	0.9078
3916	0.907
3924	0.9062
3932	0.9054
3940	0.9046
3948	0.9038
3956	0.903
3964	0.9023
3972	0.9014
3980	0.9006
3988	0.8999
3996	0.8993
