Infrared Spectrum: ACETAMIDE, 9H-(ADENIN-9-YL)-
Formula: C7 H8 N6 O
CAS: 98277-56-6
State: SOLID (1.2 mg / 650 mg KBr DISC)
Class: COBLENTZ III
Instrument: PERKIN-ELMER 21 (GRATING)
Instrument parameters: FILTER CHANGE ABOUT 1090 CM^-^1
Sampling: TRANSMISSION
Resolution: 2
Origin: SOUTHERN RESEARCH INSTITUTE
1/CM	TRANSMITTANCE
600	0.4891
609	0.4904
618	0.4731
627	0.4457
636	0.3984
645	0.2906
654	0.3254
663	0.3741
672	0.42
681	0.4492
690	0.4632
699	0.5026
708	0.5121
717	0.4991
726	0.4618
735	0.5205
744	0.5756
753	0.5911
762	0.6072
771	0.5968
780	0.5757
789	0.5426
798	0.4798
807	0.4076
816	0.4034
825	0.6151
834	0.6671
843	0.6772
852	0.6767
861	0.6593
870	0.5969
879	0.5818
888	0.6589
897	0.6703
906	0.6424
915	0.6002
924	0.6262
933	0.6536
942	0.645
951	0.6108
960	0.6358
969	0.5942
978	0.6299
987	0.6443
996	0.6256
1005	0.5995
1014	0.5456
1023	0.5261
1032	0.5752
1041	0.5836
1050	0.5784
1059	0.5582
1068	0.5382
1077	0.4984
1086	0.472
1095	0.4369
1104	0.5786
1113	0.5673
1122	0.5548
1131	0.5438
1140	0.5323
1149	0.5176
1158	0.4563
1167	0.3929
1176	0.5226
1185	0.516
1194	0.497
1203	0.4654
1212	0.4308
1221	0.416
1230	0.4698
1239	0.4744
1248	0.4481
1257	0.381
1266	0.3163
1275	0.4005
1284	0.3833
1293	0.3339
1302	0.1949
1311	0.2865
1320	0.2822
1329	0.3404
1338	0.2802
1347	0.4679
1356	0.5298
1365	0.4904
1374	0.3884
1383	0.4587
1392	0.3733
1401	0.4821
1410	0.3378
1419	0.305
1428	0.3056
1437	0.2984
1446	0.418
1455	0.5297
1464	0.5234
1473	0.5033
1482	0.4135
1491	0.4366
1500	0.5711
1509	0.575
1518	0.5257
1527	0.5047
1536	0.5212
1545	0.4921
1554	0.4535
1563	0.4082
1572	0.3506
1581	0.2048
1590	0.3072
1599	0.2433
1608	0.1488
1617	0.1695
1626	0.2425
1635	0.216
1644	0.1803
1653	0.1684
1662	0.1445
1671	0.0879
1680	0.0926
1689	0.123
1698	0.2731
1707	0.3588
1716	0.4318
1725	0.4865
1734	0.5205
1743	0.5469
1752	0.5714
1761	0.6326
1770	0.6753
1779	0.7081
1788	0.7358
1797	0.7533
1806	0.7647
1815	0.775
1824	0.7828
1833	0.7847
1842	0.7883
1851	0.7905
1860	0.7846
1869	0.777
1878	0.7721
1887	0.7464
1896	0.7432
1905	0.768
1914	0.7663
1923	0.7587
1932	0.7526
1941	0.7476
1950	0.7528
1959	0.7516
1968	0.7472
1977	0.7411
1986	0.7337
1995	0.7284
2004	0.7228
2013	0.7164
2022	0.713
2031	0.7063
2040	0.7039
2049	0.7043
2058	0.7056
2067	0.7028
2076	0.6956
2085	0.6916
2094	0.6885
2103	0.685
2112	0.6808
2121	0.6764
2130	0.6718
2139	0.6648
2148	0.6644
2157	0.6647
2166	0.6664
2175	0.6675
2184	0.6666
2193	0.6639
2202	0.66
2211	0.6578
2220	0.6602
2229	0.6635
2238	0.6618
2247	0.6518
2256	0.6495
2265	0.6477
2274	0.646
2283	0.6479
2292	0.6479
2301	0.6476
2310	0.6541
2319	0.6571
2328	0.6552
2337	0.6493
2346	0.6426
2355	0.6377
2364	0.6334
2373	0.6289
2382	0.6257
2391	0.6227
2400	0.6197
2409	0.622
2418	0.626
2427	0.6221
2436	0.6157
2445	0.6088
2454	0.6029
2463	0.5983
2472	0.5997
2481	0.6062
2490	0.6008
2499	0.5882
2508	0.5827
2517	0.5788
2526	0.5758
2535	0.5728
2544	0.5703
2553	0.5683
2562	0.5677
2571	0.5563
2580	0.5458
2589	0.5442
2598	0.5454
2607	0.5481
2616	0.545
2625	0.5378
2634	0.5284
2643	0.5183
2652	0.5119
2661	0.5047
2670	0.4976
2679	0.4942
2688	0.4892
2697	0.4906
2706	0.4968
2715	0.4935
2724	0.4793
2733	0.4628
2742	0.4538
2751	0.4477
2760	0.4502
2769	0.4491
2778	0.4437
2787	0.4339
2796	0.4188
2805	0.4105
2814	0.4071
2823	0.4125
2832	0.409
2841	0.4064
2850	0.407
2859	0.4056
2868	0.3956
2877	0.3845
2886	0.3742
2895	0.3646
2904	0.3529
2913	0.3386
2922	0.3284
2931	0.3199
2940	0.3131
2949	0.3084
2958	0.3067
2967	0.2996
2976	0.2958
2985	0.2929
2994	0.2898
3003	0.2841
3012	0.272
3021	0.2625
3030	0.2567
3039	0.2517
3048	0.2434
3057	0.234
3066	0.2276
3075	0.2211
3084	0.2118
3093	0.191
3102	0.1832
3111	0.1818
3120	0.1778
3129	0.1853
3138	0.1934
3147	0.2075
3156	0.2261
3165	0.2397
3174	0.2475
3183	0.2509
3192	0.2599
3201	0.2668
3210	0.2665
3219	0.2635
3228	0.2579
3237	0.2529
3246	0.2499
3255	0.2458
3264	0.2305
3273	0.2163
3282	0.2023
3291	0.1902
3300	0.1772
3309	0.1572
3318	0.1499
3327	0.1456
3336	0.1503
3345	0.1595
3354	0.1729
3363	0.1937
3372	0.2211
3381	0.2545
3390	0.2799
3399	0.2976
3408	0.315
3417	0.3261
3426	0.3386
3435	0.3537
3444	0.3661
3453	0.3653
3462	0.3606
3471	0.3591
3480	0.3538
3489	0.3403
3498	0.326
3507	0.3147
3516	0.3093
3525	0.308
3534	0.3229
3543	0.3475
3552	0.384
3561	0.4331
3570	0.472
3579	0.506
3588	0.5374
3597	0.5621
3606	0.5824
3615	0.6039
3624	0.6301
3633	0.6454
3642	0.655
3651	0.6606
3660	0.6636
3669	0.6672
3678	0.6729
3687	0.6783
3696	0.6792
3705	0.6782
3714	0.6784
3723	0.6797
3732	0.6777
3741	0.6751
3750	0.6729
3759	0.6722
3768	0.6752
3777	0.6719
3786	0.668
3795	0.668
3804	0.6689
3813	0.6696
3822	0.6704
3831	0.6704
3840	0.669
3849	0.6674
3858	0.6658
3867	0.664
3876	0.6622
3885	0.6618
3894	0.6546
3903	0.6548
3912	0.6565
3921	0.657
3930	0.6554
3939	0.6529
3948	0.653
3957	0.6567
3966	0.6471
3975	0.6408
3984	0.6382
3993	0.6127
