Infrared Spectrum: Acetamide, 6(9H)-chloropurine-9-yl-
Formula: C7 H6 Cl N5 O
CAS: 98273-93-9
State: SOLID (0.8 mg / 650 mg KBr DISC)
Class: COBLENTZ III
Instrument: PERKIN-ELMER 21 (GRATING)
Instrument parameters: FILTER CHANGE AT 1090 CM^-^1
Sampling: TRANSMISSION
Resolution: 2
Origin: SOUTHERN RESEARCH INSTITUTE, W.C. Coburn, Jr.
1/CM	TRANSMITTANCE
605	0.6894
614	0.6928
623	0.6648
632	0.6229
641	0.5013
650	0.5507
659	0.5221
668	0.5468
677	0.6052
686	0.6653
695	0.7023
704	0.755
713	0.7929
722	0.8073
731	0.8132
740	0.8139
749	0.8085
758	0.7946
767	0.7727
776	0.7375
785	0.6524
794	0.6317
803	0.5448
812	0.8413
821	0.8423
830	0.8356
839	0.8271
848	0.8062
857	0.7781
866	0.729
875	0.7271
884	0.7992
893	0.78
902	0.6995
911	0.7833
920	0.7582
929	0.7275
938	0.3302
947	0.732
956	0.7622
965	0.532
974	0.6388
983	0.8014
992	0.8227
1001	0.8214
1010	0.8169
1019	0.8087
1028	0.8003
1037	0.7918
1046	0.7827
1055	0.7734
1064	0.7628
1073	0.7515
1082	0.7053
1091	0.7089
1100	0.6594
1109	0.6175
1118	0.656
1127	0.6348
1136	0.5337
1145	0.5953
1154	0.6774
1163	0.6328
1172	0.5897
1181	0.4673
1190	0.3772
1199	0.5238
1208	0.3982
1217	0.345
1226	0.6933
1235	0.7105
1244	0.6686
1253	0.4732
1262	0.5782
1271	0.4682
1280	0.599
1289	0.5853
1298	0.4002
1307	0.4084
1316	0.6198
1325	0.5215
1334	0.3477
1343	0.4197
1352	0.5811
1361	0.6091
1370	0.5754
1379	0.5686
1388	0.4456
1397	0.28
1406	0.2851
1415	0.547
1424	0.6131
1433	0.5813
1442	0.3948
1451	0.6035
1460	0.717
1469	0.7081
1478	0.6705
1487	0.6137
1496	0.5336
1505	0.6403
1514	0.6443
1523	0.6029
1532	0.5604
1541	0.449
1550	0.2913
1559	0.1472
1568	0.3615
1577	0.5064
1586	0.274
1595	0.4445
1604	0.5753
1613	0.554
1622	0.4989
1631	0.3887
1640	0.2961
1649	0.1444
1658	0.1087
1667	0.2445
1676	0.3463
1685	0.3707
1694	0.4465
1703	0.4891
1712	0.6191
1721	0.7188
1730	0.7555
1739	0.7779
1748	0.7976
1757	0.8061
1766	0.809
1775	0.7901
1784	0.7983
1793	0.8269
1802	0.8345
1811	0.8389
1820	0.8455
1829	0.8446
1838	0.8418
1847	0.8454
1856	0.8427
1865	0.8368
1874	0.8345
1883	0.8365
1892	0.8337
1901	0.8267
1910	0.8134
1919	0.8163
1928	0.8266
1937	0.8297
1946	0.8308
1955	0.8217
1964	0.8227
1973	0.8257
1982	0.8273
1991	0.8252
2000	0.8184
2009	0.8164
2018	0.8158
2027	0.8178
2036	0.8163
2045	0.8122
2054	0.8139
2063	0.8157
2072	0.8134
2081	0.8102
2090	0.8066
2099	0.8049
2108	0.8034
2117	0.8008
2126	0.8017
2135	0.8029
2144	0.8017
2153	0.7991
2162	0.7948
2171	0.7875
2180	0.7824
2189	0.7801
2198	0.7807
2207	0.7812
2216	0.778
2225	0.78
2234	0.7857
2243	0.7832
2252	0.7792
2261	0.7758
2270	0.7739
2279	0.7748
2288	0.7749
2297	0.7721
2306	0.7633
2315	0.7598
2324	0.7584
2333	0.7566
2342	0.7552
2351	0.7543
2360	0.7531
2369	0.7516
2378	0.7506
2387	0.7486
2396	0.7433
2405	0.7427
2414	0.7432
2423	0.7415
2432	0.7382
2441	0.7344
2450	0.7308
2459	0.7287
2468	0.7277
2477	0.7267
2486	0.7268
2495	0.7258
2504	0.7233
2513	0.7213
2522	0.7219
2531	0.7238
2540	0.7258
2549	0.7262
2558	0.7217
2567	0.7161
2576	0.7164
2585	0.7165
2594	0.7119
2603	0.7109
2612	0.7103
2621	0.7088
2630	0.7062
2639	0.7029
2648	0.6991
2657	0.6997
2666	0.6999
2675	0.6943
2684	0.6874
2693	0.6849
2702	0.6834
2711	0.6794
2720	0.674
2729	0.6715
2738	0.6708
2747	0.6707
2756	0.6702
2765	0.6693
2774	0.6669
2783	0.6652
2792	0.6638
2801	0.6605
2810	0.6556
2819	0.6505
2828	0.6508
2837	0.6531
2846	0.6528
2855	0.6506
2864	0.6464
2873	0.6395
2882	0.6306
2891	0.619
2900	0.6073
2909	0.6024
2918	0.5928
2927	0.5895
2936	0.5838
2945	0.5693
2954	0.562
2963	0.5601
2972	0.5611
2981	0.5631
2990	0.5609
2999	0.5529
3008	0.5387
3017	0.5324
3026	0.5166
3035	0.496
3044	0.4806
3053	0.4648
3062	0.4489
3071	0.4329
3080	0.4166
3089	0.3974
3098	0.3756
3107	0.3511
3116	0.3302
3125	0.3114
3134	0.3227
3143	0.3407
3152	0.3555
3161	0.4018
3170	0.4362
3179	0.4584
3188	0.4775
3197	0.5087
3206	0.5305
3215	0.5365
3224	0.5345
3233	0.5287
3242	0.5179
3251	0.5034
3260	0.4964
3269	0.4826
3278	0.4814
3287	0.4748
3296	0.4557
3305	0.45
3314	0.4301
3323	0.4002
3332	0.3705
3341	0.3477
3350	0.3335
3359	0.3267
3368	0.3283
3377	0.3658
3386	0.4191
3395	0.475
3404	0.5109
3413	0.5379
3422	0.5572
3431	0.5669
3440	0.5747
3449	0.5819
3458	0.5882
3467	0.5944
3476	0.5994
3485	0.6044
3494	0.6101
3503	0.6161
3512	0.622
3521	0.6259
3530	0.6299
3539	0.6341
3548	0.6373
3557	0.6398
3566	0.645
3575	0.656
3584	0.663
3593	0.6662
3602	0.6682
3611	0.6677
3620	0.6695
3629	0.6742
3638	0.6822
3647	0.6831
3656	0.681
3665	0.6797
3674	0.6787
3683	0.6814
3692	0.6832
3701	0.678
3710	0.6755
3719	0.6767
3728	0.6739
3737	0.6697
3746	0.6698
3755	0.672
3764	0.675
3773	0.6771
3782	0.6787
3791	0.6795
3800	0.6752
3809	0.6706
3818	0.6698
3827	0.6703
3836	0.6711
3845	0.672
3854	0.6726
3863	0.6716
3872	0.6679
3881	0.6629
3890	0.6581
3899	0.6574
3908	0.6613
3917	0.6593
3926	0.6545
3935	0.6568
3944	0.6611
3953	0.6584
3962	0.6544
3971	0.6513
3980	0.649
3989	0.6571
3998	0.6896
