Infrared Spectrum: PURINE, 6-(METHYLTHIOMETHYLTHIO)-
Formula: C7 H8 N4 S2
CAS: 98277-50-0
State: SOLID (1 mg / 650 mg KBr DISC)
Class: COBLENTZ III
Instrument: PERKIN-ELMER 21 (GRATING)
Instrument parameters: FILTER CHANGE AT 1025 CM^-^1
Sampling: TRANSMISSION
Resolution: 2
Origin: SOUTHERN RESEARCH INSTITUTE
1/CM	TRANSMITTANCE
613.883	0.49
622.952	0.4801
632.021	0.4585
641.089	0.3861
650.158	0.6227
659.227	0.6928
668.296	0.6839
677.365	0.686
686.434	0.6625
695.502	0.5598
704.571	0.5945
713.64	0.6738
722.709	0.6487
731.778	0.6014
740.847	0.4931
749.915	0.5526
758.984	0.642
768.053	0.6256
777.122	0.6092
786.191	0.5571
795.259	0.5211
804.328	0.528
813.397	0.5124
822.466	0.4769
831.535	0.4331
840.604	0.3596
849.672	0.3284
858.741	0.1694
867.81	0.2277
876.879	0.4881
885.948	0.637
895.016	0.636
904.085	0.5975
913.154	0.4582
922.223	0.2791
931.292	0.6339
940.361	0.6122
949.429	0.6519
958.498	0.6296
967.567	0.5867
976.636	0.6156
985.705	0.5661
994.774	0.403
1003.84	0.5841
1012.91	0.6602
1021.98	0.661
1031.05	0.661
1040.12	0.659
1049.19	0.659
1058.26	0.659
1067.32	0.6486
1076.39	0.6366
1085.46	0.625
1094.53	0.6078
1103.6	0.5714
1112.67	0.5511
1121.74	0.5202
1130.81	0.587
1139.87	0.5773
1148.94	0.5652
1158.01	0.5609
1167.08	0.521
1176.15	0.512
1185.22	0.4741
1194.29	0.4105
1203.36	0.2533
1212.43	0.4979
1221.49	0.4506
1230.56	0.3138
1239.63	0.137
1248.7	0.2191
1257.77	0.6217
1266.84	0.6457
1275.91	0.6184
1284.98	0.6096
1294.04	0.6112
1303.11	0.5532
1312.18	0.4303
1321.25	0.2941
1330.32	0.2929
1339.39	0.5017
1348.46	0.6136
1357.53	0.5423
1366.6	0.5376
1375.66	0.5339
1384.73	0.4777
1393.8	0.3265
1402.87	0.509
1411.94	0.4443
1421.01	0.34
1430.08	0.3299
1439.15	0.304
1448.21	0.3709
1457.28	0.594
1466.35	0.55
1475.42	0.579
1484.49	0.5653
1493.56	0.5502
1502.63	0.5297
1511.7	0.4924
1520.77	0.4537
1529.83	0.4295
1538.9	0.3666
1547.97	0.2653
1557.04	0.117
1566.11	0.0499
1575.18	0.1364
1584.25	0.2541
1593.32	0.2258
1602.38	0.2996
1611.45	0.5693
1620.52	0.6484
1629.59	0.667
1638.66	0.673
1647.73	0.6777
1656.8	0.6813
1665.87	0.686
1674.94	0.686
1684	0.686
1693.07	0.6883
1702.14	0.692
1711.21	0.69
1720.28	0.6878
1729.35	0.6749
1738.42	0.663
1747.49	0.654
1756.55	0.68
1765.62	0.6878
1774.69	0.69
1783.76	0.689
1792.83	0.688
1801.9	0.686
1810.97	0.682
1820.04	0.677
1829.11	0.676
1838.17	0.675
1847.24	0.673
1856.31	0.6724
1865.38	0.67
1874.45	0.6625
1883.52	0.658
1892.59	0.663
1901.66	0.672
1910.72	0.668
1919.79	0.666
1928.86	0.6627
1937.93	0.6604
1947	0.658
1956.07	0.658
1965.14	0.6578
1974.21	0.655
1983.28	0.6489
1992.34	0.6439
2001.41	0.6451
2010.48	0.645
2019.55	0.635
2028.62	0.634
2037.69	0.634
2046.76	0.63
2055.83	0.63
2064.89	0.6298
2073.96	0.6269
2083.03	0.623
2092.1	0.619
2101.17	0.6179
2110.24	0.612
2119.31	0.61
2128.38	0.613
2137.45	0.605
2146.51	0.605
2155.58	0.603
2164.65	0.599
2173.72	0.5949
2182.79	0.5909
2191.86	0.588
2200.93	0.586
2210	0.585
2219.06	0.5808
2228.13	0.572
2237.2	0.568
2246.27	0.5668
2255.34	0.5609
2264.41	0.5588
2273.48	0.555
2282.55	0.5509
2291.61	0.5389
2300.68	0.5289
2309.75	0.5209
2318.82	0.521
2327.89	0.521
2336.96	0.516
2346.03	0.5059
2355.1	0.5048
2364.17	0.502
2373.23	0.501
2382.3	0.4967
2391.37	0.4899
2400.44	0.488
2409.51	0.481
2418.58	0.48
2427.65	0.479
2436.72	0.476
2445.78	0.474
2454.85	0.4686
2463.92	0.453
2472.99	0.444
2482.06	0.4359
2491.13	0.4318
2500.2	0.4248
2509.27	0.4138
2518.34	0.4089
2527.4	0.395
2536.47	0.389
2545.54	0.3891
2554.61	0.393
2563.68	0.394
2572.75	0.394
2581.82	0.3909
2590.89	0.3859
2599.95	0.378
2609.02	0.371
2618.09	0.368
2627.16	0.3681
2636.23	0.3598
2645.3	0.3348
2654.37	0.3279
2663.44	0.322
2672.51	0.318
2681.57	0.3171
2690.64	0.318
2699.71	0.3191
2708.78	0.3242
2717.85	0.327
2726.92	0.3198
2735.99	0.314
2745.06	0.3069
2754.12	0.2996
2763.19	0.2907
2772.26	0.278
2781.33	0.2678
2790.4	0.2599
2799.47	0.26
2808.54	0.2611
2817.61	0.2664
2826.68	0.2872
2835.74	0.301
2844.81	0.3072
2853.88	0.3112
2862.95	0.328
2872.02	0.3398
2881.09	0.3306
2890.16	0.3189
2899.23	0.3127
2908.29	0.2975
2917.36	0.282
2926.43	0.28
2935.5	0.28
2944.57	0.277
2953.64	0.2647
2962.71	0.264
2971.78	0.265
2980.85	0.273
2989.91	0.2834
2998.98	0.3114
3008.05	0.326
3017.12	0.3239
3026.19	0.3168
3035.26	0.3087
3044.33	0.2908
3053.4	0.28
3062.46	0.28
3071.53	0.275
3080.6	0.275
3089.67	0.277
3098.74	0.2833
3107.81	0.3015
3116.88	0.3324
3125.95	0.354
3135.02	0.368
3144.08	0.3872
3153.15	0.403
3162.22	0.408
3171.29	0.413
3180.36	0.4171
3189.43	0.418
3198.5	0.4217
3207.57	0.4441
3216.63	0.4621
3225.7	0.474
3234.77	0.472
3243.84	0.4781
3252.91	0.484
3261.98	0.488
3271.05	0.488
3280.12	0.488
3289.19	0.487
3298.25	0.4868
3307.32	0.484
3316.39	0.483
3325.46	0.474
3334.53	0.469
3343.6	0.4646
3352.67	0.453
3361.74	0.4489
3370.8	0.4417
3379.87	0.4259
3388.94	0.4169
3398.01	0.411
3407.08	0.4039
3416.15	0.3999
3425.22	0.399
3434.29	0.398
3443.36	0.394
3452.42	0.394
3461.49	0.395
3470.56	0.395
3479.63	0.395
3488.7	0.395
3497.77	0.3981
3506.84	0.4031
3515.91	0.4081
3524.97	0.4171
3534.04	0.422
3543.11	0.4261
3552.18	0.4311
3561.25	0.4362
3570.32	0.4421
3579.39	0.4511
3588.46	0.458
3597.53	0.4621
3606.59	0.4691
3615.66	0.4751
3624.73	0.4812
3633.8	0.4881
3642.87	0.494
3651.94	0.497
3661.01	0.5
3670.08	0.5001
3679.14	0.502
3688.21	0.5051
3697.28	0.5069
3706.35	0.5048
3715.42	0.501
3724.49	0.501
3733.56	0.501
3742.63	0.501
3751.7	0.5011
3760.76	0.502
3769.83	0.503
3778.9	0.506
3787.97	0.509
3797.04	0.509
3806.11	0.507
3815.18	0.505
3824.25	0.498
3833.31	0.494
3842.38	0.492
3851.45	0.49
3860.52	0.489
3869.59	0.489
3878.66	0.489
3887.73	0.489
3896.8	0.49
3905.87	0.49
3914.93	0.49
3924	0.484
3933.07	0.484
3942.14	0.484
3951.21	0.484
3960.28	0.483
3969.35	0.4809
3978.42	0.478
3987.48	0.478
3996.55	0.479
4005.62	0.479
