Infrared Spectrum: Acetic Acid, 9H-Purine-9-yl-, Hydrazide
Formula: C7 H8 N6 O
CAS: 98277-57-7
State: SOLID (0.7 mg / 650 mg KBr DISC)
Class: COBLENTZ III
Instrument: PERKIN-ELMER 21 (GRATING)
Instrument parameters: FILTER CHANGE ABOUT 1090 CM^-^1
Sampling: TRANSMISSION
Resolution: 2
Origin: SOUTHERN RESEARCH INSTITUTE
1/CM	TRANSMITTANCE
597.96	0.9103
607.002	0.9141
616.045	0.8906
625.087	0.8274
634.13	0.6397
643.172	0.6063
652.215	0.9286
661.257	0.9248
670.299	0.9001
679.342	0.8686
688.384	0.8224
697.427	0.749
706.469	0.625
715.512	0.5147
724.554	0.5597
733.597	0.6265
742.639	0.8109
751.681	0.8733
760.724	0.8916
769.766	0.8814
778.809	0.859
787.851	0.6842
796.894	0.6813
805.936	0.7754
814.978	0.9193
824.021	0.9335
833.063	0.9336
842.106	0.9335
851.148	0.9331
860.191	0.9267
869.233	0.9238
878.275	0.9047
887.318	0.8556
896.36	0.7949
905.403	0.7375
914.445	0.7654
923.488	0.6631
932.53	0.732
941.572	0.808
950.615	0.8602
959.657	0.8566
968.7	0.7572
977.742	0.7445
986.785	0.6872
995.827	0.5368
1004.87	0.5691
1013.91	0.78
1022.95	0.8789
1032	0.8887
1041.04	0.8912
1050.08	0.8915
1059.12	0.8938
1068.17	0.8949
1077.21	0.8962
1086.25	0.8803
1095.29	0.7434
1104.34	0.7792
1113.38	0.7994
1122.42	0.7102
1131.46	0.804
1140.51	0.795
1149.55	0.7865
1158.59	0.7795
1167.63	0.7173
1176.68	0.4571
1185.72	0.6348
1194.76	0.2063
1203.8	0.4847
1212.85	0.8146
1221.89	0.8528
1230.93	0.8415
1239.97	0.7774
1249.02	0.743
1258.06	0.7861
1267.1	0.7807
1276.14	0.7342
1285.18	0.6321
1294.23	0.6909
1303.27	0.5725
1312.31	0.3279
1321.35	0.7754
1330.4	0.7879
1339.44	0.7805
1348.48	0.6982
1357.52	0.4142
1366.57	0.6973
1375.61	0.633
1384.65	0.7042
1393.69	0.479
1402.74	0.471
1411.78	0.2747
1420.82	0.5445
1429.86	0.6112
1438.91	0.7292
1447.95	0.8016
1456.99	0.7945
1466.03	0.8095
1475.08	0.7943
1484.12	0.7889
1493.16	0.7355
1502.2	0.6385
1511.25	0.419
1520.29	0.6647
1529.33	0.5756
1538.37	0.4027
1547.42	0.5383
1556.46	0.7056
1565.5	0.7
1574.54	0.6744
1583.59	0.4625
1592.63	0.3097
1601.67	0.2725
1610.71	0.407
1619.76	0.4544
1628.8	0.32
1637.84	0.349
1646.88	0.3212
1655.92	0.1056
1664.97	0.0815
1674.01	0.2685
1683.05	0.4963
1692.09	0.5955
1701.14	0.7293
1710.18	0.7862
1719.22	0.8427
1728.26	0.866
1737.31	0.8811
1746.35	0.8899
1755.39	0.8962
1764.43	0.9011
1773.48	0.9059
1782.52	0.8968
1791.56	0.8904
1800.6	0.8757
1809.65	0.872
1818.69	0.904
1827.73	0.9187
1836.77	0.9205
1845.82	0.9306
1854.86	0.9267
1863.9	0.925
1872.94	0.9226
1881.99	0.9171
1891.03	0.9105
1900.07	0.906
1909.11	0.9127
1918.16	0.9207
1927.2	0.9197
1936.24	0.9183
1945.28	0.914
1954.33	0.906
1963.37	0.9006
1972.41	0.9122
1981.45	0.9161
1990.49	0.9148
1999.54	0.9138
2008.58	0.9105
2017.62	0.9065
2026.66	0.905
2035.71	0.9042
2044.75	0.9047
2053.79	0.9053
2062.83	0.9084
2071.88	0.9077
2080.92	0.9058
2089.96	0.904
2099	0.9031
2108.05	0.9045
2117.09	0.9052
2126.13	0.9085
2135.17	0.9096
2144.22	0.9092
2153.26	0.9077
2162.3	0.906
2171.34	0.9039
2180.39	0.9017
2189.43	0.8987
2198.47	0.8957
2207.51	0.8934
2216.56	0.8912
2225.6	0.8894
2234.64	0.8887
2243.68	0.8873
2252.73	0.885
2261.77	0.8828
2270.81	0.8803
2279.85	0.8798
2288.9	0.8787
2297.94	0.8689
2306.98	0.871
2316.02	0.8732
2325.06	0.8751
2334.11	0.8767
2343.15	0.8771
2352.19	0.8762
2361.23	0.8742
2370.28	0.8716
2379.32	0.8687
2388.36	0.8672
2397.4	0.8673
2406.45	0.867
2415.49	0.8656
2424.53	0.8622
2433.57	0.8608
2442.62	0.8603
2451.66	0.8563
2460.7	0.8496
2469.74	0.8448
2478.79	0.8432
2487.83	0.842
2496.87	0.8408
2505.91	0.838
2514.96	0.8346
2524	0.8328
2533.04	0.832
2542.08	0.8332
2551.13	0.8352
2560.17	0.8329
2569.21	0.8298
2578.25	0.8279
2587.3	0.8274
2596.34	0.8258
2605.38	0.8244
2614.42	0.823
2623.47	0.8203
2632.51	0.8175
2641.55	0.8151
2650.59	0.8133
2659.63	0.8128
2668.68	0.8154
2677.72	0.815
2686.76	0.8174
2695.8	0.821
2704.85	0.8194
2713.89	0.8147
2722.93	0.8065
2731.97	0.7977
2741.02	0.7924
2750.06	0.7885
2759.1	0.7855
2768.14	0.7824
2777.19	0.7751
2786.23	0.7699
2795.27	0.7685
2804.31	0.7678
2813.36	0.7675
2822.4	0.7667
2831.44	0.7667
2840.48	0.7652
2849.53	0.7602
2858.57	0.7554
2867.61	0.7511
2876.65	0.7461
2885.7	0.7354
2894.74	0.7175
2903.78	0.7073
2912.82	0.6968
2921.87	0.6949
2930.91	0.6938
2939.95	0.691
2948.99	0.6867
2958.04	0.6694
2967.08	0.6656
2976.12	0.6598
2985.16	0.6575
2994.2	0.6649
3003.25	0.6627
3012.29	0.6406
3021.33	0.6113
3030.37	0.5838
3039.42	0.5556
3048.46	0.5587
3057.5	0.5741
3066.54	0.5983
3075.59	0.6168
3084.63	0.6085
3093.67	0.6003
3102.71	0.5994
3111.76	0.6053
3120.8	0.5981
3129.84	0.5644
3138.88	0.4985
3147.93	0.4781
3156.97	0.4826
3166.01	0.4929
3175.05	0.5112
3184.1	0.5221
3193.14	0.5131
3202.18	0.4981
3211.22	0.4773
3220.27	0.4539
3229.31	0.4265
3238.35	0.371
3247.39	0.3258
3256.44	0.2755
3265.48	0.2296
3274.52	0.1623
3283.56	0.1336
3292.61	0.1261
3301.65	0.1275
3310.69	0.1439
3319.73	0.2419
3328.78	0.3422
3337.82	0.4152
3346.86	0.444
3355.9	0.4849
3364.94	0.5025
3373.99	0.5093
3383.03	0.5084
3392.07	0.5057
3401.11	0.5033
3410.16	0.5028
3419.2	0.5036
3428.24	0.5052
3437.28	0.5075
3446.33	0.5117
3455.37	0.5188
3464.41	0.5273
3473.45	0.5367
3482.5	0.5456
3491.54	0.5537
3500.58	0.5614
3509.62	0.5709
3518.67	0.5812
3527.71	0.5915
3536.75	0.6079
3545.79	0.6215
3554.84	0.632
3563.88	0.6432
3572.92	0.6602
3581.96	0.676
3591.01	0.6896
3600.05	0.7029
3609.09	0.7146
3618.13	0.7206
3627.18	0.7312
3636.22	0.741
3645.26	0.7417
3654.3	0.7416
3663.35	0.7473
3672.39	0.754
3681.43	0.7546
3690.47	0.756
3699.51	0.7653
3708.56	0.7662
3717.6	0.7664
3726.64	0.7669
3735.68	0.7677
3744.73	0.7687
3753.77	0.7702
3762.81	0.7733
3771.85	0.7735
3780.9	0.7661
3789.94	0.7639
3798.98	0.7625
3808.02	0.7615
3817.07	0.7608
3826.11	0.7595
3835.15	0.7582
3844.19	0.7568
3853.24	0.7554
3862.28	0.7543
3871.32	0.7537
3880.36	0.7531
3889.41	0.7523
3898.45	0.7511
3907.49	0.7529
3916.53	0.7572
3925.58	0.7566
3934.62	0.7547
3943.66	0.7525
3952.7	0.7501
3961.75	0.7486
3970.79	0.7491
3979.83	0.7479
3988.87	0.7431
3997.92	0.7345
4006.96	0.7145
4016	0.6839
