Infrared Spectrum: Benzophenone azine
Formula: C 26 H 20 N 2
CAS: 983-79-9
State: gas
Origin: EPA-IR VAPOR PHASE LIBRARY
1/CM	ABSORBANCE
549.8	0.0010495
559.445	0.0013686
569.09	0.002506
578.734	0.003716
588.379	0.0014157
598.024	0.0013939
607.669	0.001666
617.313	0.001896
626.958	0.001696
636.603	0.002856
646.248	0.005106
655.893	0.008296
665.537	0.009836
675.182	0.015166
684.827	0.020416
694.472	0.040026
704.116	0.021466
713.761	0.008286
723.406	0.006156
733.051	0.003306
742.695	0.003416
752.34	0.005076
761.985	0.011276
771.63	0.017196
781.275	0.005706
790.919	0.003256
800.564	0.002216
810.209	0.001686
819.854	0.0013898
829.498	0.0013049
839.143	0.0012873
848.788	0.0012865
858.433	0.0013652
868.078	0.0013947
877.722	0.0014109
887.367	0.0016023
897.012	0.001966
906.657	0.004546
916.301	0.002766
925.946	0.002086
935.591	0.002416
945.236	0.004566
954.88	0.009596
964.525	0.006206
974.17	0.004256
983.815	0.003196
993.46	0.002586
1003.1	0.002426
1012.75	0.0015909
1022.39	0.002766
1032.04	0.005276
1041.68	0.0011422
1051.33	0.0011177
1060.97	0.001746
1070.62	0.002856
1080.26	0.0014284
1089.91	0.0007371
1099.55	0.0012019
1109.2	0.00024
1118.84	0.000647
1128.49	0.0008762
1138.13	0.0008363
1147.78	0.0010348
1157.42	0.001796
1167.07	0.0016106
1176.71	0.004726
1186.36	0.003506
1196	0.001656
1205.64	0.0013344
1215.29	0.0009762
1224.93	0.001936
1234.58	0.002236
1244.22	0.002216
1253.87	0.002036
1263.51	0.002656
1273.16	0.003906
1282.8	0.006946
1292.45	0.010996
1302.09	0.011766
1311.74	0.012686
1321.38	0.013936
1331.03	0.006996
1340.67	0.003426
1350.32	0.002156
1359.96	0.001786
1369.61	0.001726
1379.25	0.001696
1388.9	0.0013843
1398.54	0.0013531
1408.18	0.0014419
1417.83	0.001696
1427.47	0.002406
1437.12	0.004326
1446.76	0.007576
1456.41	0.003016
1466.05	0.002316
1475.7	0.002506
1485.34	0.005506
1494.99	0.007116
1504.63	0.002236
1514.28	0.001736
1523.92	0.002046
1533.57	0.002616
1543.21	0.003476
1552.86	0.005916
1562.5	0.009626
1572.15	0.008666
1581.79	0.007826
1591.44	0.008516
1601.08	0.005246
1610.73	0.003356
1620.37	0.002506
1630.01	0.001776
1639.66	0.0014798
1649.3	0.001454
1658.95	0.0015342
1668.59	0.0015696
1678.24	0.001686
1687.88	0.001816
1697.53	0.0013401
1707.17	0.0011251
1716.82	0.0011398
1726.46	0.0011597
1736.11	0.001323
1745.75	0.001521
1755.4	0.001502
1765.04	0.0013325
1774.69	0.0014166
1784.33	0.00147
1793.98	0.002296
1803.62	0.002846
1813.27	0.001876
1822.91	0.0014305
1832.55	0.0012308
1842.2	0.0011586
1851.84	0.0011868
1861.49	0.0014541
1871.13	0.001746
1880.78	0.002056
1890.42	0.002226
1900.07	0.001786
1909.71	0.0013593
1919.36	0.0012776
1929	0.001616
1938.65	0.002366
1948.29	0.002696
1957.94	0.002516
1967.58	0.0014756
1977.23	0.0010314
1986.87	0.0009103
1996.52	0.0008453
2006.16	0.0008077
2015.81	0.0008469
2025.45	0.0008628
2035.1	0.000775
2044.74	0.0008091
2054.38	0.0008568
2064.03	0.0008754
2073.67	0.0007744
2083.32	0.000784
2092.96	0.0007582
2102.61	0.0007227
2112.25	0.0007655
2121.9	0.0007509
2131.54	0.0007281
2141.19	0.0007791
2150.83	0.0007818
2160.48	0.0007958
2170.12	0.0008592
2179.77	0.0008104
2189.41	0.000804
2199.06	0.0008474
2208.7	0.0007647
2218.35	0.0007339
2227.99	0.0008363
2237.64	0.0008342
2247.28	0.000846
2256.92	0.0008762
2266.57	0.0008744
2276.21	0.0008218
2285.86	0.0008701
2295.5	0.000807
2305.15	0.0009343
2314.79	0.001275
2324.44	0.0009847
2334.08	0.0010172
2343.73	0.0010048
2353.37	0.0009016
2363.02	0.0008689
2372.66	0.000787
2382.31	0.00070016
2391.95	0.00076
2401.6	0.0007642
2411.24	0.0007873
2420.89	0.0008364
2430.53	0.000887
2440.18	0.0007859
2449.82	0.0009038
2459.47	0.0007873
2469.11	0.0008508
2478.75	0.0008815
2488.4	0.0008533
2498.04	0.0007841
2507.69	0.0007563
2517.33	0.0009437
2526.98	0.0008643
2536.62	0.0008239
2546.27	0.0009792
2555.91	0.0008301
2565.56	0.0008126
2575.2	0.0008413
2584.85	0.0008599
2594.49	0.0008425
2604.14	0.0008974
2613.78	0.0007477
2623.43	0.0008719
2633.07	0.0008234
2642.72	0.0007733
2652.36	0.0007653
2662.01	0.0008129
2671.65	0.00067374
2681.29	0.00065513
2690.94	0.00071067
2700.58	0.0007445
2710.23	0.000733
2719.87	0.0008391
2729.52	0.0008414
2739.16	0.0008046
2748.81	0.0008229
2758.45	0.0008814
2768.1	0.0008308
2777.74	0.000867
2787.39	0.0007023
2797.03	0.0007293
2806.68	0.0008048
2816.32	0.0008276
2825.97	0.0008145
2835.61	0.0008594
2845.26	0.00089
2854.9	0.0009982
2864.55	0.0010606
2874.19	0.0011754
2883.84	0.0012178
2893.48	0.0009939
2903.12	0.0010359
2912.77	0.0010508
2922.41	0.0010816
2932.06	0.0011486
2941.7	0.0010062
2951.35	0.0010066
2960.99	0.0010935
2970.64	0.0011795
2980.28	0.0014177
2989.93	0.001616
2999.57	0.001776
3009.22	0.002886
3018.86	0.005106
3028.51	0.008806
3038.15	0.009846
3047.8	0.008356
3057.44	0.014386
3067.09	0.028406
3076.73	0.015356
3086.38	0.012896
3096.02	0.008006
3105.67	0.005686
3115.31	0.003126
3124.95	0.001926
3134.6	0.001646
3144.24	0.0014983
3153.89	0.0013394
3163.53	0.0011772
3173.18	0.0010197
3182.82	0.0008957
3192.47	0.0008416
3202.11	0.0007197
3211.76	0.0007893
3221.4	0.0007675
3231.05	0.000786
3240.69	0.0007527
3250.34	0.00063593
3259.98	0.0005313
3269.63	0.0007298
3279.27	0.0008859
3288.92	0.000722
3298.56	0.000618016
3308.21	0.0007983
3317.85	0.00067313
3327.49	0.0007426
3337.14	0.00071466
3346.78	0.0005942
3356.43	0.0006369
3366.07	0.00063619
3375.72	0.0007678
3385.36	0.00070446
3395.01	0.0006598
3404.65	0.00061274
3414.3	0.00065003
3423.94	0.0005545
3433.59	0.0007254
3443.23	0.0005673
3452.88	0.000616787
3462.52	0.00064861
3472.17	0.00071066
3481.81	0.00067349
3491.46	0.00068659
3501.1	0.0007765
3510.75	0.00070107
3520.39	0.000623788
3530.04	0.000445
3539.68	0.0005387
3549.32	0.00071577
3558.97	0.00068815
3568.61	0.00070932
3578.26	0.00078
3587.9	0.0007865
3597.55	0.000473
3607.19	0.0005773
3616.84	0.00060892
3626.48	0.0006058
3636.13	0.0005706
3645.77	0.0007561
3655.42	0.0008043
3665.06	0.00065714
3674.71	0.000622091
3684.35	0.00061098
3694	0.0007935
3703.64	0.0005873
3713.29	0.0006731
3722.93	0.00064578
3732.58	0.000603
3742.22	0.00061645
3751.86	0.00063366
3761.51	0.00066283
3771.15	0.0007264
3780.8	0.00070706
3790.44	0.0006819
3800.09	0.0005254
3809.73	0.00065147
3819.38	0.00063626
3829.02	0.000484
3838.67	0.000403
3848.31	0.000618092
3857.96	0.000464
3867.6	0.000573
3877.25	0.0006142
3886.89	0.00064275
3896.54	0.0007235
3906.18	0.00068282
3915.83	0.00064026
3925.47	0.0005634
3935.12	0.0005713
3944.76	0.0005689
3954.41	0.000499
3964.05	0.000574
3973.69	0.000509
3983.34	0.00061479
3992.98	0.0007304
