Infrared Spectrum: O-NITRO CARBANILIC ACID, THYMOL ESTER
Formula: C17 H18 N2 O4
CAS: 98309-55-8
Class: COBLENTZ
Instrument: Not specified, most likely a grating spectrometer.
Sampling: TRANSMISSION
Path length: CAPILLARY
Resolution: 4
Origin: CITRUS EXPERIMENT STATION, UNIVERSITY OF FLORIDA (G. EDWARDS)
MICROMETERS	TRANSMITTANCE
2.564	0.944
2.59716	0.942
2.63032	0.941
2.66347	0.94
2.69663	0.932
2.72979	0.93
2.76295	0.92
2.79611	0.904
2.82926	0.885
2.86242	0.868
2.89558	0.815
2.92874	0.71
2.96189	0.606
2.99505	0.776
3.02821	0.894
3.06137	0.909
3.09453	0.902
3.12768	0.901
3.16084	0.873
3.194	0.837
3.22716	0.82
3.26032	0.791
3.29347	0.751
3.32663	0.648
3.35979	0.554
3.39295	0.662
3.4261	0.74
3.45926	0.78
3.49242	0.876
3.52558	0.917
3.55874	0.924
3.59189	0.933
3.62505	0.936
3.65821	0.94
3.69137	0.94
3.72453	0.941
3.75768	0.94
3.79084	0.937
3.824	0.938
3.85716	0.94
3.89032	0.94
3.92347	0.944
3.95663	0.944
3.98979	0.944
4.02295	0.944
4.0561	0.94
4.08926	0.937
4.12242	0.936
4.15558	0.936
4.18874	0.936
4.22189	0.936
4.25505	0.937
4.28821	0.942
4.32137	0.945
4.35453	0.945
4.38768	0.941
4.42084	0.938
4.454	0.936
4.48716	0.932
4.52031	0.929
4.55347	0.93
4.58663	0.933
4.61979	0.936
4.65295	0.94
4.6861	0.941
4.71926	0.941
4.75242	0.942
4.78558	0.94
4.81874	0.938
4.85189	0.936
4.88505	0.932
4.91821	0.932
4.95137	0.932
4.98453	0.929
5.01768	0.926
5.05084	0.925
5.084	0.926
5.11716	0.926
5.15031	0.926
5.18347	0.924
5.21663	0.91
5.24979	0.91
5.28295	0.909
5.3161	0.902
5.34926	0.892
5.38242	0.88
5.41558	0.847
5.44874	0.823
5.48189	0.801
5.51505	0.763
5.54821	0.711
5.58137	0.606
5.61453	0.377
5.64768	0.212
5.68084	0.312
5.714	0.494
5.74716	0.634
5.78031	0.704
5.81347	0.761
5.84663	0.772
5.87979	0.772
5.91295	0.767
5.9461	0.752
5.97926	0.735
6.01242	0.708
6.04558	0.599
6.07874	0.575
6.11189	0.484
6.14505	0.321
6.17821	0.224
6.21137	0.231
6.24452	0.351
6.27768	0.244
6.31084	0.321
6.344	0.49
6.37716	0.481
6.41031	0.371
6.44347	0.317
6.47663	0.24
6.50979	0.208
6.54295	0.125
6.5761	0.122
6.60926	0.146
6.64242	0.159
6.67558	0.271
6.70874	0.39
6.74189	0.401
6.77505	0.313
6.80821	0.247
6.84137	0.127
6.87452	0.126
6.90768	0.126
6.94084	0.11
6.974	0.158
7.00716	0.208
7.04031	0.243
7.07347	0.267
7.10663	0.347
7.13979	0.42
7.17295	0.462
7.2061	0.47
7.23926	0.488
7.27242	0.486
7.30558	0.44
7.33873	0.361
7.37189	0.253
7.40505	0.074
7.43821	0.095
7.47137	0.178
7.50452	0.332
7.53768	0.339
7.57084	0.284
7.604	0.336
7.63716	0.353
7.67031	0.343
7.70347	0.296
7.73663	0.222
7.76979	0.172
7.80295	0.172
7.8361	0.2
7.86926	0.281
7.90242	0.315
7.93558	0.321
7.96873	0.252
8.00189	0.13
8.03505	0.053
8.06821	0.067
8.10137	0.11
8.13452	0.203
8.16768	0.313
8.20084	0.315
8.234	0.255
8.26716	0.187
8.30031	0.09
8.33347	0.021
8.36663	0.013
8.39979	0.022
8.43294	0.045
8.4661	0.102
8.49926	0.21
8.53242	0.242
8.56558	0.182
8.59873	0.151
8.63189	0.174
8.66505	0.174
8.69821	0.178
8.73137	0.303
8.76452	0.476
8.79768	0.582
8.83084	0.623
8.864	0.61
8.89716	0.567
8.93031	0.521
8.96347	0.485
8.99663	0.449
9.02979	0.472
9.06294	0.476
9.0961	0.42
9.12926	0.267
9.16242	0.152
9.19558	0.188
9.22873	0.325
9.26189	0.476
9.29505	0.587
9.32821	0.642
9.36137	0.628
9.39452	0.539
9.42768	0.429
9.46084	0.433
9.494	0.514
9.52715	0.555
9.56031	0.567
9.59347	0.609
9.62663	0.643
9.65979	0.626
9.69294	0.563
9.7261	0.444
9.75926	0.288
9.79242	0.272
9.82558	0.357
9.85873	0.489
9.89189	0.611
9.92505	0.662
9.95821	0.694
9.99137	0.708
10.0245	0.73
10.0577	0.773
10.0908	0.797
10.124	0.815
10.1572	0.833
10.1903	0.845
10.2235	0.848
10.2566	0.847
10.2898	0.841
10.3229	0.832
10.3561	0.816
10.3893	0.796
10.4224	0.784
10.4556	0.787
10.4887	0.797
10.5219	0.811
10.555	0.807
10.5882	0.796
10.6214	0.779
10.6545	0.781
10.6877	0.819
10.7208	0.851
10.754	0.864
10.7872	0.867
10.8203	0.871
10.8535	0.881
10.8866	0.892
10.9198	0.892
10.9529	0.892
10.9861	0.886
11.0193	0.877
11.0524	0.875
11.0856	0.868
11.1187	0.855
11.1519	0.835
11.185	0.8
11.2182	0.763
11.2514	0.74
11.2845	0.71
11.3177	0.664
11.3508	0.607
11.384	0.579
11.4172	0.591
11.4503	0.638
11.4835	0.664
11.5166	0.674
11.5498	0.675
11.5829	0.69
11.6161	0.691
11.6493	0.672
11.6824	0.631
11.7156	0.599
11.7487	0.606
11.7819	0.632
11.815	0.674
11.8482	0.711
11.8814	0.744
11.9145	0.753
11.9477	0.746
11.9808	0.727
12.014	0.695
12.0472	0.644
12.0803	0.566
12.1135	0.493
12.1466	0.434
12.1798	0.402
12.2129	0.41
12.2461	0.445
12.2793	0.538
12.3124	0.636
12.3456	0.711
12.3787	0.764
12.4119	0.771
12.445	0.76
12.4782	0.736
12.5114	0.683
12.5445	0.618
12.5777	0.581
12.6108	0.558
12.644	0.531
12.6772	0.498
12.7103	0.445
12.7435	0.417
12.7766	0.43
12.8098	0.493
12.8429	0.613
12.8761	0.7
12.9093	0.743
12.9424	0.746
12.9756	0.743
13.0087	0.73
13.0419	0.708
13.075	0.67
13.1082	0.619
13.1414	0.545
13.1745	0.476
13.2077	0.394
13.2408	0.341
13.274	0.315
13.3072	0.284
13.3403	0.247
13.3735	0.2
13.4066	0.148
13.4398	0.114
13.4729	0.117
13.5061	0.14
13.5393	0.186
13.5724	0.305
13.6056	0.428
13.6387	0.542
13.6719	0.606
13.705	0.628
13.7382	0.628
13.7714	0.622
13.8045	0.603
13.8377	0.573
13.8708	0.569
13.904	0.583
13.9372	0.601
13.9703	0.626
14.0035	0.635
14.0366	0.64
14.0698	0.639
14.1029	0.632
14.1361	0.627
14.1693	0.61
14.2024	0.597
14.2356	0.589
14.2687	0.577
14.3019	0.551
14.335	0.545
14.3682	0.505
14.4014	0.48
14.4345	0.445
14.4677	0.416
14.5008	0.396
14.534	0.397
14.5672	0.41
14.6003	0.417
14.6335	0.412
14.6666	0.398
14.6998	0.397
14.7329	0.397
14.7661	0.404
14.7993	0.41
14.8324	0.42
14.8656	0.422
14.8987	0.42
14.9319	0.421
14.965	0.424
14.9982	0.426
