Infrared Spectrum: FORMAMIDE, N-[4-AMINO-6-(DIMETHYLAMINO)-5-PYRIMIDINYL]-
Formula: C7 H11 N5 O
CAS: 98335-68-3
State: SOLID (0.9 mg / 649 mg KBr)
Melting point: 195 C
Class: COBLENTZ III
Instrument: PERKIN-ELMER 21 (GRATING)
Instrument parameters: FILTER CHANGE AT ABOUT 1085 CM^-^1
Sampling: TRANSMISSION
Resolution: 2
Origin: SOUTHERN RESEARCH INSTITUTE
1/CM	TRANSMITTANCE
679.119	0.439
687.111	0.6176
695.104	0.636
703.096	0.6123
711.089	0.5179
719.081	0.6472
727.073	0.6612
735.066	0.6573
743.058	0.632
751.05	0.6051
759.043	0.596
767.035	0.6142
775.028	0.6243
783.02	0.382
791.012	0.3986
799.005	0.4811
806.997	0.5623
814.989	0.6398
822.982	0.6941
830.974	0.6948
838.967	0.6618
846.959	0.4134
854.951	0.5758
862.944	0.7208
870.936	0.7008
878.928	0.6362
886.921	0.428
894.913	0.6048
902.906	0.7544
910.898	0.7684
918.89	0.7634
926.883	0.7199
934.875	0.6622
942.867	0.6704
950.86	0.7505
958.852	0.755
966.845	0.751
974.837	0.7339
982.829	0.626
990.822	0.7041
998.814	0.6882
1006.81	0.6319
1014.8	0.5484
1022.79	0.3757
1030.78	0.2985
1038.78	0.4434
1046.77	0.5709
1054.76	0.5849
1062.75	0.5467
1070.75	0.3916
1078.74	0.511
1086.73	0.4735
1094.72	0.3165
1102.72	0.564
1110.71	0.6175
1118.7	0.609
1126.69	0.5722
1134.68	0.4583
1142.68	0.4104
1150.67	0.4927
1158.66	0.6308
1166.65	0.6511
1174.65	0.6605
1182.64	0.6605
1190.63	0.6526
1198.62	0.656
1206.62	0.646
1214.61	0.644
1222.6	0.6334
1230.59	0.6175
1238.59	0.5906
1246.58	0.5588
1254.57	0.5179
1262.56	0.4932
1270.56	0.4885
1278.55	0.3961
1286.54	0.2941
1294.53	0.2841
1302.52	0.3477
1310.52	0.4806
1318.51	0.522
1326.5	0.5032
1334.49	0.4446
1342.49	0.3807
1350.48	0.2161
1358.47	0.2595
1366.46	0.3826
1374.46	0.4101
1382.45	0.428
1390.44	0.3588
1398.43	0.1401
1406.43	0.1616
1414.42	0.0932
1422.41	0.026
1430.4	0.2069
1438.39	0.407
1446.39	0.3651
1454.38	0.2708
1462.37	0.1873
1470.36	0.1712
1478.36	0.138
1486.35	0.0931
1494.34	0.0929
1502.33	0.1357
1510.33	0.0713
1518.32	0.048
1526.31	0.0701
1534.3	0.0837
1542.3	0.1004
1550.29	0.1008
1558.28	0.083
1566.27	0.0727
1574.27	0.0334
1582.26	0.021
1590.25	0.023
1598.24	0.0238
1606.23	0.1059
1614.23	0.1536
1622.22	0.17
1630.21	0.1815
1638.2	0.187
1646.2	0.182
1654.19	0.0478
1662.18	0.0339
1670.17	0.031
1678.17	0.042
1686.16	0.1375
1694.15	0.1931
1702.14	0.3537
1710.14	0.4814
1718.13	0.605
1726.12	0.6561
1734.11	0.7067
1742.11	0.7347
1750.1	0.7476
1758.09	0.7646
1766.08	0.7818
1774.07	0.794
1782.07	0.801
1790.06	0.8094
1798.05	0.816
1806.04	0.8254
1814.04	0.8293
1822.03	0.838
1830.02	0.8435
1838.01	0.846
1846.01	0.847
1854	0.847
1861.99	0.846
1869.98	0.846
1877.98	0.854
1885.97	0.85
1893.96	0.851
1901.95	0.851
1909.95	0.851
1917.94	0.851
1925.93	0.85
1933.92	0.847
1941.91	0.8436
1949.91	0.8267
1957.9	0.843
1965.89	0.8496
1973.88	0.854
1981.88	0.854
1989.87	0.854
1997.86	0.8584
2005.85	0.862
2013.85	0.8562
2021.84	0.853
2029.83	0.853
2037.82	0.8506
2045.82	0.845
2053.81	0.845
2061.8	0.8416
2069.79	0.841
2077.79	0.839
2085.78	0.838
2093.77	0.838
2101.76	0.845
2109.75	0.846
2117.75	0.847
2125.74	0.846
2133.73	0.845
2141.72	0.8402
2149.72	0.8358
2157.71	0.8268
2165.7	0.8246
2173.69	0.816
2181.69	0.812
2189.68	0.8072
2197.67	0.7992
2205.66	0.7902
2213.66	0.787
2221.65	0.7924
2229.64	0.8014
2237.63	0.8108
2245.63	0.813
2253.62	0.816
2261.61	0.82
2269.6	0.825
2277.59	0.828
2285.59	0.829
2293.58	0.829
2301.57	0.829
2309.56	0.83
2317.56	0.8344
2325.55	0.833
2333.54	0.83
2341.53	0.833
2349.53	0.833
2357.52	0.8312
2365.51	0.8294
2373.5	0.8384
2381.5	0.8376
2389.49	0.834
2397.48	0.833
2405.47	0.837
2413.47	0.834
2421.46	0.8326
2429.45	0.829
2437.44	0.824
2445.43	0.826
2453.43	0.8256
2461.42	0.82
2469.41	0.8152
2477.4	0.8094
2485.4	0.814
2493.39	0.8126
2501.38	0.812
2509.37	0.81
2517.37	0.8096
2525.36	0.809
2533.35	0.798
2541.34	0.8028
2549.34	0.799
2557.33	0.788
2565.32	0.791
2573.31	0.7886
2581.31	0.781
2589.3	0.7874
2597.29	0.788
2605.28	0.7822
2613.27	0.776
2621.27	0.773
2629.26	0.7658
2637.25	0.755
2645.24	0.7472
2653.24	0.7284
2661.23	0.7128
2669.22	0.705
2677.21	0.707
2685.21	0.7114
2693.2	0.712
2701.19	0.7116
2709.18	0.7076
2717.18	0.705
2725.17	0.6866
2733.16	0.6768
2741.15	0.6696
2749.15	0.661
2757.14	0.6332
2765.13	0.6139
2773.12	0.5908
2781.11	0.558
2789.11	0.5072
2797.1	0.5038
2805.09	0.5186
2813.08	0.526
2821.08	0.5159
2829.07	0.4822
2837.06	0.4507
2845.05	0.4073
2853.05	0.3486
2861.04	0.2868
2869.03	0.2804
2877.02	0.2906
2885.02	0.312
2893.01	0.317
2901	0.318
2908.99	0.3126
2916.99	0.2803
2924.98	0.243
2932.97	0.2236
2940.96	0.2088
2948.95	0.1974
2956.95	0.1694
2964.94	0.1558
2972.93	0.1456
2980.92	0.142
2988.92	0.145
2996.91	0.1528
3004.9	0.1686
3012.89	0.1802
3020.89	0.1904
3028.88	0.1934
3036.87	0.194
3044.86	0.1906
3052.86	0.1842
3060.85	0.1722
3068.84	0.1598
3076.83	0.1438
3084.82	0.108
3092.82	0.0996
3100.81	0.0922
3108.8	0.0772
3116.79	0.074
3124.79	0.07
3132.78	0.071
3140.77	0.075
3148.76	0.0808
3156.76	0.087
3164.75	0.0924
3172.74	0.1004
3180.73	0.1084
3188.73	0.115
3196.72	0.134
3204.71	0.1388
3212.7	0.1456
3220.7	0.154
3228.69	0.158
3236.68	0.1829
3244.67	0.205
3252.66	0.2396
3260.66	0.257
3268.65	0.259
3276.64	0.2542
3284.63	0.241
3292.63	0.2226
3300.62	0.2116
3308.61	0.199
3316.6	0.194
3324.6	0.193
3332.59	0.1944
3340.58	0.199
3348.57	0.2054
3356.57	0.2166
3364.56	0.2274
3372.55	0.231
3380.54	0.2178
3388.54	0.192
3396.53	0.159
3404.52	0.1376
3412.51	0.1392
3420.5	0.1506
3428.5	0.1904
3436.49	0.2148
3444.48	0.2258
3452.47	0.2034
3460.47	0.1774
3468.46	0.1494
3476.45	0.1678
3484.44	0.183
3492.44	0.2252
3500.43	0.2831
3508.42	0.3504
3516.41	0.4331
3524.41	0.475
3532.4	0.5036
3540.39	0.5242
3548.38	0.5548
3556.38	0.585
3564.37	0.6214
3572.36	0.6516
3580.35	0.6738
3588.34	0.7046
3596.34	0.7156
3604.33	0.7292
3612.32	0.7488
3620.31	0.76
3628.31	0.7652
3636.3	0.7806
3644.29	0.7952
3652.28	0.8
3660.28	0.801
3668.27	0.8072
3676.26	0.813
3684.25	0.8148
3692.25	0.816
3700.24	0.817
3708.23	0.821
3716.22	0.824
3724.22	0.824
3732.21	0.824
3740.2	0.824
3748.19	0.825
3756.18	0.825
3764.18	0.825
3772.17	0.825
3780.16	0.825
3788.15	0.825
3796.15	0.825
3804.14	0.825
3812.13	0.825
3820.12	0.825
