Infrared Spectrum: 2-Trifluoromethylcinnamic acid
Formula: C 10 H 7 F 3 O 2
CAS: 98386-81-3
State: gas
Origin: EPA-IR VAPOR PHASE LIBRARY
1/CM	ABSORBANCE
549.8	0.01557
559.445	0.01879
569.09	0.02327
578.734	0.02471
588.379	0.01389
598.024	0.00898
607.669	0.00491
617.313	0.00291
626.958	0.00295
636.603	0.00574
646.248	0.00737
655.893	0.00601
665.537	0.01178
675.182	0.0095
684.827	0.00396
694.472	0.0031
704.116	0.0033
713.761	0.00301
723.406	0.00293
733.051	0.00291
742.695	0.00476
752.34	0.01749
761.985	0.03232
771.63	0.01324
781.275	0.00414
790.919	0.00252
800.564	0.00182
810.209	0.00171
819.854	0.00175
829.498	0.00189
839.143	0.00187
848.788	0.00215
858.433	0.00235
868.078	0.00374
877.722	0.00516
887.367	0.0041
897.012	0.00336
906.657	0.00362
916.301	0.00302
925.946	0.00277
935.591	0.00329
945.236	0.00422
954.88	0.00539
964.525	0.00668
974.17	0.01104
983.815	0.01069
993.46	0.00635
1003.1	0.00364
1012.75	0.00285
1022.39	0.00632
1032.04	0.02073
1041.68	0.02723
1051.33	0.01476
1060.97	0.01934
1070.62	0.01088
1080.26	0.00762
1089.91	0.01237
1099.55	0.02616
1109.2	0.06341
1118.84	0.10674
1128.49	0.08464
1138.13	0.11083
1147.78	0.14292
1157.42	0.10276
1167.07	0.09452
1176.71	0.0904
1186.36	0.03364
1196	0.01391
1205.64	0.01059
1215.29	0.00835
1224.93	0.00749
1234.58	0.0086
1244.22	0.01002
1253.87	0.01466
1263.51	0.02096
1273.16	0.02639
1282.8	0.03118
1292.45	0.03125
1302.09	0.04845
1311.74	0.10231
1321.38	0.08145
1331.03	0.0255
1340.67	0.01633
1350.32	0.0213
1359.96	0.03009
1369.61	0.01998
1379.25	0.00801
1388.9	0.00469
1398.54	0.0033
1408.18	0.00282
1417.83	0.00256
1427.47	0.00272
1437.12	0.00325
1446.76	0.00458
1456.41	0.00478
1466.05	0.00331
1475.7	0.00482
1485.34	0.00915
1494.99	0.00785
1504.63	0.00277
1514.28	0.00201
1523.92	0.00173
1533.57	0.0014
1543.21	0.00146
1552.86	0.00174
1562.5	0.00315
1572.15	0.00628
1581.79	0.00552
1591.44	0.00302
1601.08	0.00367
1610.73	0.00382
1620.37	0.00453
1630.01	0.0084
1639.66	0.01638
1649.3	0.0154
1658.95	0.00538
1668.59	0.00324
1678.24	0.00295
1687.88	0.00351
1697.53	0.00425
1707.17	0.00564
1716.82	0.00872
1726.46	0.01363
1736.11	0.02432
1745.75	0.05261
1755.4	0.09575
1765.04	0.07918
1774.69	0.03857
1784.33	0.0241
1793.98	0.01438
1803.62	0.00891
1813.27	0.0063
1822.91	0.00479
1832.55	0.00352
1842.2	0.00282
1851.84	0.00227
1861.49	0.00181
1871.13	0.00162
1880.78	0.00159
1890.42	0.00151
1900.07	0.0016
1909.71	0.00144
1919.36	0.0012439
1929	0.00172
1938.65	0.00191
1948.29	0.00142
1957.94	0.0014
1967.58	0.00149
1977.23	0.0010234
1986.87	0.0008263
1996.52	0.000742
2006.16	0.000825
2015.81	0.0008609
2025.45	0.0008612
2035.1	0.0008696
2044.74	0.0009129
2054.38	0.0010371
2064.03	0.0011632
2073.67	0.0009805
2083.32	0.0008967
2092.96	0.0008591
2102.61	0.0007277
2112.25	0.0005996
2121.9	0.0006846
2131.54	0.0005676
2141.19	0.000606
2150.83	0.0005431
2160.48	0.0006355
2170.12	0.0006588
2179.77	0.0006423
2189.41	0.0008126
2199.06	0.0010073
2208.7	0.0008605
2218.35	0.0009663
2227.99	0.0010837
2237.64	0.0010337
2247.28	0.000956
2256.92	0.0010305
2266.57	0.0010488
2276.21	0.000855
2285.86	0.0008216
2295.5	0.0009163
2305.15	0.0008862
2314.79	0.0008749
2324.44	0.0009045
2334.08	0.0009707
2343.73	0.0009295
2353.37	0.0009256
2363.02	0.0008183
2372.66	0.0007357
2382.31	0.0005425
2391.95	0.0006257
2401.6	0.0006463
2411.24	0.0006548
2420.89	0.0007064
2430.53	0.0007518
2440.18	0.0006626
2449.82	0.0006856
2459.47	0.0008467
2469.11	0.0008415
2478.75	0.0007205
2488.4	0.000772
2498.04	0.0007177
2507.69	0.000678
2517.33	0.0005672
2526.98	0.0005217
2536.62	0.0006714
2546.27	0.0005252
2555.91	0.0005558
2565.56	0.0006437
2575.2	0.0007119
2584.85	0.0007119
2594.49	0.0006599
2604.14	0.0007028
2613.78	0.0007894
2623.43	0.0007609
2633.07	0.0004956
2642.72	0.00037232
2652.36	0.000709
2662.01	0.00036724
2671.65	0.0005764
2681.29	0.0006832
2690.94	0.0008718
2700.58	0.0005274
2710.23	0.0005365
2719.87	0.0007058
2729.52	0.0006453
2739.16	0.000581
2748.81	0.000468
2758.45	0.000504
2768.1	0.0006168
2777.74	0.0006906
2787.39	0.000631
2797.03	0.0005794
2806.68	0.0006302
2816.32	0.0004774
2825.97	0.0005565
2835.61	0.00037085
2845.26	0.0004776
2854.9	0.0007525
2864.55	0.0009022
2874.19	0.0006981
2883.84	0.0008403
2893.48	0.0009022
2903.12	0.0010336
2912.77	0.0009001
2922.41	0.0009959
2932.06	0.0006361
2941.7	0.0007264
2951.35	0.0006843
2960.99	0.0006267
2970.64	0.0005729
2980.28	0.000763
2989.93	0.000615
2999.57	0.00131
3009.22	0.0012658
3018.86	0.0012246
3028.51	0.0011252
3038.15	0.00196
3047.8	0.00226
3057.44	0.00273
3067.09	0.00404
3076.73	0.00633
3086.38	0.00558
3096.02	0.00214
3105.67	0.00157
3115.31	0.00152
3124.95	0.0009987
3134.6	0.0009118
3144.24	0.0006564
3153.89	0.0009243
3163.53	0.0005434
3173.18	0.0004976
3182.82	0.0006281
3192.47	0.0007638
3202.11	0.0005397
3211.76	0.0004603
3221.4	0.0004982
3231.05	0.0004065
3240.69	0.0003556
3250.34	0.00036262
3259.98	0.0007228
3269.63	0.000771
3279.27	0.0005451
3288.92	0.00038545
3298.56	0.0005184
3308.21	0.00036113
3317.85	0.0004924
3327.49	0.0005236
3337.14	0.0004418
3346.78	0.0004891
3356.43	0.00038061
3366.07	0.000536
3375.72	0.0007407
3385.36	0.0006652
3395.01	0.0004893
3404.65	0.0007075
3414.3	0.0004494
3423.94	0.0006229
3433.59	0.0005826
3443.23	0.000522
3452.88	0.0005233
3462.52	0.000585
3472.17	0.0007696
3481.81	0.0008782
3491.46	0.0011938
3501.1	0.00148
3510.75	0.0012952
3520.39	0.0011473
3530.04	0.0009012
3539.68	0.0010633
3549.32	0.0010207
3558.97	0.00217
3568.61	0.00779
3578.26	0.03822
3587.9	0.03389
3597.55	0.006
3607.19	0.00172
3616.84	0.0008521
3626.48	0.0009487
3636.13	0.0006194
3645.77	0.000842
3655.42	0.0008391
3665.06	0.0007266
3674.71	0.0005427
3684.35	0.0005461
3694	0.0005069
3703.64	0.0005171
3713.29	0.0002681
3722.93	0.0004745
3732.58	0.0006052
3742.22	0.000688
3751.86	0.0002664
3761.51	0.0002019
3771.15	0.00015
3780.8	0.000413
3790.44	0.0004519
3800.09	0.00037289
3809.73	0.0005266
3819.38	0.0005243
3829.02	0.0004285
3838.67	0.0008748
3848.31	0.0004263
3857.96	0.0005347
3867.6	0.00032188
3877.25	0.0005304
3886.89	0.0004827
3896.54	0.00037941
3906.18	0.000556
3915.83	0.0006204
3925.47	0.0007215
3935.12	0.0006142
3944.76	0.0005655
3954.41	0.0005351
3964.05	0.0004626
3973.69	0.00032837
3983.34	0.0006367
3992.98	0.0005604
