Infrared Spectrum: 3-Butyn-2-ol, 2-(1-methylcyclopropyl)-,
Formula: C8 H12 O
CAS: 98558-09-9
State: LIQUID (NEAT)
Class: COBLENTZ III
Instrument: PERKIN-ELMER 21 (GRATING)
Instrument parameters: FILTER AT ABOUT 10 MICRONS
Path length: CAPILLARY
Resolution: 2
Origin: ABBOTT LABORATORIES
1/CM	TRANSMITTANCE
668	0.2856
677	0.3596
686	0.4328
695	0.4993
704	0.5526
713	0.5955
722	0.6343
731	0.6743
740	0.7057
749	0.728
758	0.7381
767	0.7524
776	0.746
785	0.7265
794	0.7077
803	0.5692
812	0.7584
821	0.7839
830	0.7865
839	0.7746
848	0.773
857	0.7314
866	0.5723
875	0.7306
884	0.6941
893	0.5651
902	0.2999
911	0.1222
920	0.1981
929	0.2843
938	0.2949
947	0.5161
956	0.7076
965	0.7556
974	0.7629
983	0.7589
992	0.7376
1001	0.6861
1010	0.3431
1019	0.3326
1028	0.5802
1037	0.5744
1046	0.3144
1055	0.2391
1064	0.1538
1073	0.1508
1082	0.1663
1091	0.1905
1100	0.218
1109	0.1348
1118	0.1159
1127	0.272
1136	0.3301
1145	0.2478
1154	0.3039
1163	0.4351
1172	0.5895
1181	0.6846
1190	0.7078
1199	0.7059
1208	0.699
1217	0.6859
1226	0.6629
1235	0.6182
1244	0.5673
1253	0.505
1262	0.4614
1271	0.4383
1280	0.4384
1289	0.4361
1298	0.425
1307	0.3871
1316	0.3451
1325	0.3396
1334	0.3432
1343	0.3443
1352	0.3206
1361	0.257
1370	0.2806
1379	0.3563
1388	0.5205
1397	0.5579
1406	0.5279
1415	0.3808
1424	0.5343
1433	0.4799
1442	0.3469
1451	0.3499
1460	0.5004
1469	0.6802
1478	0.7479
1487	0.778
1496	0.7938
1505	0.802
1514	0.8076
1523	0.8104
1532	0.8148
1541	0.8159
1550	0.8164
1559	0.8162
1568	0.8155
1577	0.8148
1586	0.8124
1595	0.8072
1604	0.7978
1613	0.7886
1622	0.781
1631	0.7833
1640	0.7889
1649	0.7912
1658	0.7873
1667	0.7739
1676	0.7723
1685	0.7799
1694	0.7872
1703	0.7951
1712	0.8144
1721	0.8263
1730	0.8331
1739	0.8386
1748	0.8439
1757	0.8487
1766	0.8515
1775	0.8502
1784	0.8471
1793	0.8433
1802	0.8394
1811	0.8396
1820	0.8409
1829	0.843
1838	0.8448
1847	0.8466
1856	0.8483
1865	0.8497
1874	0.851
1883	0.8524
1892	0.8535
1901	0.8544
1910	0.8554
1919	0.855
1928	0.854
1937	0.8512
1946	0.8469
1955	0.8458
1964	0.8463
1973	0.8471
1982	0.8485
1991	0.8492
2000	0.8485
2009	0.8457
2018	0.8443
2027	0.8418
2036	0.8266
2045	0.8188
2054	0.823
2063	0.8311
2072	0.8284
2081	0.817
2090	0.8003
2099	0.796
2108	0.8054
2117	0.8275
2126	0.8483
2135	0.854
2144	0.8543
2153	0.8546
2162	0.8547
2171	0.8547
2180	0.8547
2189	0.855
2198	0.8553
2207	0.8556
2216	0.8558
2225	0.8561
2234	0.8562
2243	0.8563
2252	0.8555
2261	0.8547
2270	0.8538
2279	0.853
2288	0.852
2297	0.85
2306	0.848
2315	0.8465
2324	0.846
2333	0.8456
2342	0.8451
2351	0.8458
2360	0.8481
2369	0.8505
2378	0.8501
2387	0.8491
2396	0.8475
2405	0.8459
2414	0.8442
2423	0.8426
2432	0.841
2441	0.841
2450	0.841
2459	0.841
2468	0.8419
2477	0.8429
2486	0.8438
2495	0.8447
2504	0.8453
2513	0.8455
2522	0.8456
2531	0.8458
2540	0.8459
2549	0.8452
2558	0.8442
2567	0.8432
2576	0.8421
2585	0.8398
2594	0.8375
2603	0.8352
2612	0.8326
2621	0.829
2630	0.8254
2639	0.8217
2648	0.8181
2657	0.8143
2666	0.8105
2675	0.8071
2684	0.8042
2693	0.8013
2702	0.7987
2711	0.7983
2720	0.798
2729	0.798
2738	0.7983
2747	0.7986
2756	0.7983
2765	0.7949
2774	0.7902
2783	0.7826
2792	0.7731
2801	0.7621
2810	0.7459
2819	0.7183
2828	0.6592
2837	0.6005
2846	0.5533
2855	0.5326
2864	0.5249
2873	0.5182
2882	0.4904
2891	0.4567
2900	0.4244
2909	0.3924
2918	0.3606
2927	0.329
2936	0.2975
2945	0.2666
2954	0.2563
2963	0.2554
2972	0.2566
2981	0.2746
2990	0.3625
2999	0.4686
3008	0.5742
3017	0.6791
3026	0.7303
3035	0.7177
3044	0.6767
3053	0.6359
3062	0.6121
3071	0.6429
3080	0.6893
3089	0.7353
3098	0.769
3107	0.7701
3116	0.769
3125	0.7659
3134	0.7593
3143	0.7523
3152	0.7411
3161	0.7183
3170	0.6909
3179	0.6527
3188	0.6031
3197	0.5551
3206	0.5073
3215	0.4598
3224	0.4126
3233	0.3656
3242	0.3189
3251	0.2724
3260	0.2262
3269	0.1803
3278	0.1475
3287	0.1483
3296	0.2028
3305	0.2768
3314	0.3191
3323	0.3177
3332	0.3062
3341	0.293
3350	0.2797
3359	0.2666
3368	0.2535
3377	0.2404
3386	0.2276
3395	0.2155
3404	0.2133
3413	0.2134
3422	0.2147
3431	0.2298
3440	0.2538
3449	0.2776
3458	0.3012
3467	0.3248
3476	0.3482
3485	0.3715
3494	0.3979
3503	0.4197
3512	0.4403
3521	0.4561
3530	0.4784
3539	0.5165
3548	0.5553
3557	0.5938
3566	0.6322
3575	0.6703
3584	0.7084
3593	0.7455
3602	0.7658
3611	0.7809
3620	0.7943
3629	0.8071
3638	0.8192
3647	0.8308
3656	0.8403
3665	0.8457
3674	0.8505
3683	0.8523
3692	0.8535
3701	0.8545
3710	0.8556
3719	0.8558
3728	0.8557
3737	0.8556
3746	0.8556
3755	0.8555
3764	0.8553
3773	0.8547
3782	0.8541
3791	0.8534
3800	0.8528
3809	0.8522
3818	0.851
3827	0.8496
3836	0.8483
3845	0.8463
3854	0.8437
3863	0.841
3872	0.8387
3881	0.8366
3890	0.8355
3899	0.8361
3908	0.8375
3917	0.8391
3926	0.8408
3935	0.8426
3944	0.8446
3953	0.8461
3962	0.8472
3971	0.8471
3980	0.847
3989	0.8469
3998	0.8469
