Infrared Spectrum: 4,10-DIOXA-1,7-DITHIACYCLODODECANE, 1,1,7,7-TETRAOXIDE
Formula: C8 H16 O6 S2
CAS: 98561-09-2
State: SOLID (KBr PRESSING)
Melting point: 241.5-243 C
Class: COBLENTZ
Instrument: Not specified, most likely a prism, grating, or hybrid spectrometer.
Sampling: TRANSMISSION
Resolution: 4
Origin: EASTMAN KODAK COMPANY, RESEARCH LABORATORIES, ROCHESTER, N.Y.
MICROMETERS	TRANSMITTANCE
2.051	0.835
2.08614	0.839
2.12127	0.839
2.15641	0.839
2.19155	0.837
2.22669	0.835
2.26182	0.839
2.29696	0.84
2.3321	0.842
2.36723	0.84
2.40237	0.842
2.43751	0.842
2.47264	0.84
2.50778	0.842
2.54292	0.847
2.57806	0.853
2.61319	0.856
2.64833	0.858
2.68347	0.853
2.7186	0.823
2.75374	0.744
2.78888	0.678
2.82402	0.624
2.85915	0.594
2.89429	0.573
2.92943	0.599
2.96456	0.68
2.9997	0.739
3.03484	0.751
3.06998	0.779
3.10511	0.802
3.14025	0.816
3.17539	0.837
3.21052	0.847
3.24566	0.849
3.2808	0.844
3.31593	0.688
3.35107	0.734
3.38621	0.59
3.42135	0.718
3.45648	0.711
3.49162	0.844
3.52676	0.86
3.56189	0.861
3.59703	0.881
3.63217	0.888
3.66731	0.889
3.70244	0.896
3.73758	0.9
3.77272	0.902
3.80785	0.902
3.84299	0.903
3.87813	0.905
3.91327	0.909
3.9484	0.91
3.98354	0.912
4.01868	0.914
4.05381	0.914
4.08895	0.912
4.12409	0.91
4.15922	0.907
4.19436	0.905
4.2295	0.903
4.26464	0.905
4.29977	0.91
4.33491	0.914
4.37005	0.919
4.40518	0.917
4.44032	0.912
4.47546	0.914
4.5106	0.917
4.54573	0.917
4.58087	0.917
4.61601	0.917
4.65114	0.917
4.68628	0.917
4.72142	0.917
4.75655	0.917
4.79169	0.921
4.82683	0.919
4.86197	0.916
4.8971	0.919
4.93224	0.919
4.96738	0.924
5.00251	0.928
5.03765	0.921
5.07279	0.921
5.10793	0.917
5.14306	0.916
5.1782	0.917
5.21334	0.916
5.24847	0.916
5.28361	0.919
5.31875	0.919
5.35389	0.923
5.38902	0.93
5.42416	0.93
5.4593	0.93
5.49443	0.928
5.52957	0.93
5.56471	0.93
5.59984	0.93
5.63498	0.928
5.67012	0.919
5.70526	0.914
5.74039	0.914
5.77553	0.91
5.81067	0.902
5.8458	0.912
5.88094	0.898
5.91608	0.896
5.95122	0.902
5.98635	0.886
6.02149	0.861
6.05663	0.84
6.09176	0.816
6.1269	0.809
6.16204	0.809
6.19718	0.828
6.23231	0.851
6.26745	0.87
6.30259	0.875
6.33772	0.881
6.37286	0.882
6.408	0.882
6.44313	0.889
6.47827	0.891
6.51341	0.893
6.54855	0.895
6.58368	0.896
6.61882	0.891
6.65396	0.884
6.68909	0.853
6.72423	0.736
6.75937	0.722
6.79451	0.821
6.82964	0.77
6.86478	0.72
6.89992	0.835
6.93505	0.851
6.97019	0.802
7.00533	0.763
7.04046	0.79
7.0756	0.625
7.11074	0.498
7.14588	0.69
7.18101	0.634
7.21615	0.692
7.25129	0.709
7.28642	0.741
7.32156	0.743
7.3567	0.494
7.39184	0.804
7.42697	0.804
7.46211	0.797
7.49725	0.741
7.53238	0.601
7.56752	0.405
7.60266	0.246
7.6378	0.227
7.67293	0.15
7.70807	0.127
7.74321	0.195
7.77834	0.244
7.81348	0.148
7.84862	0.106
7.88375	0.225
7.91889	0.265
7.95403	0.328
7.98917	0.368
8.0243	0.43
8.05944	0.559
8.09458	0.573
8.12971	0.702
8.16485	0.783
8.19999	0.809
8.23513	0.804
8.27026	0.732
8.3054	0.713
8.34054	0.756
8.37567	0.727
8.41081	0.629
8.44595	0.636
8.48108	0.765
8.51622	0.8
8.55136	0.805
8.5865	0.804
8.62163	0.79
8.65677	0.776
8.69191	0.755
8.72704	0.723
8.76218	0.673
8.79732	0.592
8.83246	0.33
8.86759	0.199
8.90273	0.117
8.93787	0.057
8.973	0.031
9.00814	0.031
9.04328	0.108
9.07842	0.082
9.11355	0.047
9.14869	0.073
9.18383	0.3
9.21896	0.456
9.2541	0.554
9.28924	0.634
9.32437	0.664
9.35951	0.65
9.39465	0.606
9.42979	0.652
9.46492	0.711
9.50006	0.673
9.5352	0.554
9.57033	0.576
9.60547	0.706
9.64061	0.751
9.67575	0.723
9.71088	0.702
9.74602	0.711
9.78116	0.692
9.81629	0.589
9.85143	0.358
9.88657	0.321
9.92171	0.503
9.95684	0.653
9.99198	0.76
10.0271	0.793
10.0623	0.805
10.0974	0.814
10.1325	0.819
10.1677	0.811
10.2028	0.793
10.2379	0.777
10.2731	0.743
10.3082	0.694
10.3434	0.601
10.3785	0.466
10.4136	0.444
10.4488	0.65
10.4839	0.741
10.519	0.774
10.5542	0.791
10.5893	0.774
10.6244	0.807
10.6596	0.833
10.6947	0.863
10.7299	0.881
10.765	0.882
10.8001	0.884
10.8353	0.888
10.8704	0.889
10.9055	0.889
10.9407	0.896
10.9758	0.895
11.011	0.893
11.0461	0.895
11.0812	0.896
11.1164	0.896
11.1515	0.895
11.1866	0.889
11.2218	0.886
11.2569	0.853
11.2921	0.826
11.3272	0.835
11.3623	0.856
11.3975	0.874
11.4326	0.881
11.4677	0.893
11.5029	0.893
11.538	0.891
11.5731	0.896
11.6083	0.893
11.6434	0.893
11.6786	0.882
11.7137	0.856
11.7488	0.783
11.784	0.694
11.8191	0.711
11.8542	0.807
11.8894	0.849
11.9245	0.863
11.9597	0.879
11.9948	0.882
12.0299	0.888
12.0651	0.891
12.1002	0.895
12.1353	0.893
12.1705	0.888
12.2056	0.881
12.2408	0.86
12.2759	0.807
12.311	0.753
12.3462	0.772
12.3813	0.814
12.4164	0.826
12.4516	0.835
12.4867	0.83
12.5218	0.802
12.557	0.708
12.5921	0.592
12.6273	0.543
12.6624	0.62
12.6975	0.704
12.7327	0.755
12.7678	0.769
12.8029	0.769
12.8381	0.784
12.8732	0.816
12.9084	0.837
12.9435	0.854
12.9786	0.872
13.0138	0.879
13.0489	0.874
13.084	0.874
13.1192	0.877
13.1543	0.879
13.1895	0.882
13.2246	0.882
13.2597	0.882
13.2949	0.882
13.33	0.884
13.3651	0.886
13.4003	0.888
13.4354	0.888
13.4705	0.888
13.5057	0.884
13.5408	0.882
13.576	0.877
13.6111	0.863
13.6462	0.853
13.6814	0.832
13.7165	0.77
13.7516	0.68
13.7868	0.622
13.8219	0.627
13.8571	0.69
13.8922	0.751
13.9273	0.802
13.9625	0.823
13.9976	0.847
14.0327	0.856
14.0679	0.863
14.103	0.87
14.1382	0.872
14.1733	0.875
14.2084	0.879
14.2436	0.879
14.2787	0.881
14.3138	0.882
14.349	0.884
14.3841	0.884
14.4193	0.882
14.4544	0.882
14.4895	0.882
14.5247	0.882
14.5598	0.884
14.5949	0.882
14.6301	0.881
14.6652	0.877
14.7003	0.877
14.7355	0.877
14.7706	0.877
14.8058	0.877
14.8409	0.877
14.876	0.874
14.9112	0.872
14.9463	0.872
14.9814	0.868
15.0166	0.858
15.0517	0.858
15.0869	0.867
15.122	0.865
15.1571	0.849
15.1923	0.842
15.2274	0.832
15.2625	0.821
15.2977	0.821
15.3328	0.823
15.368	0.832
15.4031	0.833
15.4382	0.835
15.4734	0.832
15.5085	0.835
15.5436	0.833
15.5788	0.83
15.6139	0.819
15.649	0.807
15.6842	0.793
15.7193	0.783
15.7545	0.783
15.7896	0.781
15.8247	0.786
15.8599	0.805
15.895	0.814
15.9301	0.819
