Infrared Spectrum: 1-ACETYL-2,3-PHTHALOYLPYRROCOLINE
Formula: C18 H11 N O3
CAS: 98596-11-3
State: SOLID (KBr PRESSING)
Melting point: 206 C
Class: COBLENTZ
Instrument: Not specified, most likely a prism, grating, or hybrid spectrometer.
Sampling: TRANSMISSION
Resolution: 4
Origin: EASTMAN KODAK COMPANY, RESEARCH LABORATORIES, ROCHESTER, N.Y.
MICROMETERS	TRANSMITTANCE
2.027	0.759
2.06694	0.757
2.10688	0.764
2.14683	0.77
2.18677	0.77
2.22671	0.77
2.26665	0.77
2.30659	0.775
2.34653	0.782
2.38648	0.783
2.42642	0.785
2.46636	0.787
2.5063	0.787
2.54624	0.79
2.58618	0.793
2.62613	0.801
2.66607	0.813
2.70601	0.806
2.74595	0.795
2.78589	0.761
2.82584	0.725
2.86578	0.708
2.90572	0.7
2.94566	0.723
2.9856	0.747
3.02554	0.769
3.06549	0.782
3.10543	0.793
3.14537	0.801
3.18531	0.797
3.22525	0.79
3.26519	0.792
3.30514	0.811
3.34508	0.815
3.38502	0.815
3.42496	0.821
3.4649	0.829
3.50484	0.834
3.54479	0.841
3.58473	0.846
3.62467	0.849
3.66461	0.852
3.70455	0.854
3.7445	0.852
3.78444	0.852
3.82438	0.862
3.86432	0.86
3.90426	0.864
3.9442	0.87
3.98415	0.867
4.02409	0.87
4.06403	0.875
4.10397	0.875
4.14391	0.872
4.18385	0.862
4.2238	0.867
4.26374	0.872
4.30368	0.878
4.34362	0.88
4.38356	0.882
4.42351	0.877
4.46345	0.883
4.50339	0.883
4.54333	0.883
4.58327	0.885
4.62321	0.882
4.66316	0.875
4.7031	0.882
4.74304	0.88
4.78298	0.885
4.82292	0.888
4.86286	0.891
4.90281	0.891
4.94275	0.891
4.98269	0.893
5.02263	0.887
5.06257	0.878
5.10252	0.873
5.14246	0.883
5.1824	0.877
5.22234	0.891
5.26228	0.882
5.30222	0.882
5.34217	0.89
5.38211	0.895
5.42205	0.873
5.46199	0.888
5.50193	0.89
5.54187	0.878
5.58182	0.873
5.62176	0.877
5.6617	0.883
5.70164	0.873
5.74158	0.86
5.78152	0.851
5.82147	0.828
5.86141	0.846
5.90135	0.823
5.94129	0.79
5.98123	0.509
6.02118	0.198
6.06112	0.378
6.10106	0.24
6.141	0.396
6.18094	0.651
6.22088	0.702
6.26083	0.559
6.30077	0.541
6.34071	0.72
6.38065	0.801
6.42059	0.808
6.46053	0.829
6.50048	0.824
6.54042	0.749
6.58036	0.764
6.6203	0.726
6.66024	0.304
6.70019	0.189
6.74013	0.404
6.78007	0.472
6.82001	0.512
6.85995	0.63
6.89989	0.716
6.93984	0.762
6.97978	0.754
7.01972	0.707
7.05966	0.713
7.0996	0.743
7.13954	0.674
7.17949	0.569
7.21943	0.61
7.25937	0.752
7.29931	0.69
7.33925	0.603
7.3792	0.78
7.41914	0.733
7.45908	0.841
7.49902	0.865
7.53896	0.852
7.5789	0.707
7.61885	0.703
7.65879	0.736
7.69873	0.842
7.73867	0.86
7.77861	0.855
7.81855	0.816
7.8585	0.783
7.89844	0.641
7.93838	0.782
7.97832	0.831
8.01826	0.819
8.0582	0.728
8.09815	0.371
8.13809	0.171
8.17803	0.283
8.21797	0.384
8.25791	0.677
8.29786	0.751
8.3378	0.77
8.37774	0.713
8.41768	0.792
8.45762	0.824
8.49756	0.839
8.53751	0.849
8.57745	0.801
8.61739	0.602
8.65733	0.621
8.69727	0.687
8.73721	0.792
8.77716	0.792
8.8171	0.787
8.85704	0.833
8.89698	0.859
8.93692	0.855
8.97687	0.793
9.01681	0.702
9.05675	0.815
9.09669	0.846
9.13663	0.847
9.17657	0.826
9.21652	0.841
9.25646	0.851
9.2964	0.855
9.33634	0.857
9.37628	0.841
9.41622	0.613
9.45617	0.656
9.49611	0.792
9.53605	0.826
9.57599	0.834
9.61593	0.842
9.65588	0.831
9.69582	0.801
9.73576	0.682
9.7757	0.682
9.81564	0.725
9.85558	0.77
9.89553	0.792
9.93547	0.783
9.97541	0.803
10.0154	0.833
10.0553	0.844
10.0952	0.842
10.1352	0.851
10.1751	0.851
10.2151	0.854
10.255	0.854
10.2949	0.852
10.3349	0.847
10.3748	0.852
10.4148	0.864
10.4547	0.869
10.4947	0.87
10.5346	0.87
10.5745	0.87
10.6145	0.867
10.6544	0.86
10.6944	0.857
10.7343	0.821
10.7742	0.705
10.8142	0.662
10.8541	0.743
10.8941	0.811
10.934	0.854
10.974	0.86
11.0139	0.873
11.0538	0.878
11.0938	0.893
11.1337	0.883
11.1737	0.88
11.2136	0.88
11.2535	0.88
11.2935	0.819
11.3334	0.829
11.3734	0.855
11.4133	0.869
11.4533	0.87
11.4932	0.878
11.5331	0.88
11.5731	0.87
11.613	0.878
11.653	0.86
11.6929	0.851
11.7328	0.846
11.7728	0.842
11.8127	0.855
11.8527	0.88
11.8926	0.883
11.9326	0.883
11.9725	0.882
12.0124	0.885
12.0524	0.885
12.0923	0.885
12.1323	0.89
12.1722	0.873
12.2121	0.873
12.2521	0.88
12.292	0.86
12.332	0.839
12.3719	0.851
12.4119	0.86
12.4518	0.87
12.4917	0.862
12.5317	0.841
12.5716	0.836
12.6116	0.811
12.6515	0.774
12.6914	0.811
12.7314	0.862
12.7713	0.854
12.8113	0.837
12.8512	0.808
12.8912	0.81
12.9311	0.811
12.971	0.811
13.011	0.801
13.0509	0.746
13.0909	0.698
13.1308	0.607
13.1707	0.71
13.2107	0.787
13.2506	0.77
13.2906	0.734
13.3305	0.63
13.3705	0.504
13.4104	0.51
13.4503	0.682
13.4903	0.8
13.5302	0.844
13.5702	0.859
13.6101	0.867
13.6501	0.867
13.69	0.867
13.7299	0.869
13.7699	0.821
13.8098	0.81
13.8498	0.821
13.8897	0.761
13.9296	0.615
13.9696	0.404
14.0095	0.35
14.0495	0.535
14.0894	0.736
14.1294	0.816
14.1693	0.834
14.2092	0.813
14.2492	0.729
14.2891	0.711
14.3291	0.741
14.369	0.797
14.4089	0.824
14.4489	0.86
14.4888	0.867
14.5288	0.87
14.5687	0.862
14.6087	0.859
14.6486	0.839
14.6885	0.841
14.7285	0.829
14.7684	0.821
14.8084	0.81
14.8483	0.79
14.8882	0.779
14.9282	0.797
14.9681	0.731
15.0081	0.675
15.048	0.684
15.088	0.641
15.1279	0.59
15.1678	0.587
15.2078	0.631
15.2477	0.679
15.2877	0.692
15.3276	0.705
15.3675	0.708
15.4075	0.71
15.4474	0.707
15.4874	0.707
15.5273	0.708
15.5673	0.708
15.6072	0.713
15.6471	0.708
15.6871	0.693
15.727	0.689
15.767	0.679
15.8069	0.68
15.8468	0.679
15.8868	0.672
15.9267	0.672
15.9667	0.669
