Infrared Spectrum: 1-CARBOMETHOXY-2,3-PHTHALOYLPYRROCOLINE
Formula: C18 H11 N O4
CAS: 98596-13-5
State: SOLID (KBr PRESSING)
Melting point: 190 C
Class: COBLENTZ
Instrument: Not specified, most likely a prism, grating, or hybrid spectrometer.
Sampling: TRANSMISSION
Resolution: 4
Origin: EASTMAN KODAK COMPANY, RESEARCH LABORATORIES, ROCHESTER, N.Y.
MICROMETERS	TRANSMITTANCE
2.033	0.309
2.07293	0.315
2.11285	0.322
2.15278	0.325
2.1927	0.328
2.23263	0.337
2.27255	0.342
2.31248	0.342
2.35241	0.35
2.39233	0.353
2.43226	0.356
2.47218	0.366
2.51211	0.368
2.55203	0.378
2.59196	0.379
2.63189	0.386
2.67181	0.391
2.71174	0.399
2.75166	0.402
2.79159	0.391
2.83151	0.378
2.87144	0.379
2.91137	0.371
2.95129	0.381
2.99122	0.393
3.03114	0.419
3.07107	0.427
3.11099	0.437
3.15092	0.442
3.19085	0.407
3.23077	0.401
3.2707	0.401
3.31062	0.422
3.35055	0.422
3.39047	0.351
3.4304	0.452
3.47033	0.444
3.51025	0.449
3.55018	0.488
3.5901	0.504
3.63003	0.513
3.66995	0.519
3.70988	0.523
3.74981	0.524
3.78973	0.532
3.82966	0.539
3.86958	0.55
3.90951	0.56
3.94943	0.567
3.98936	0.575
4.02929	0.58
4.06921	0.588
4.10914	0.595
4.14906	0.601
4.18899	0.601
4.22891	0.601
4.26884	0.608
4.30877	0.626
4.34869	0.644
4.38862	0.648
4.42854	0.654
4.46847	0.664
4.50839	0.675
4.54832	0.687
4.58825	0.685
4.62817	0.69
4.6681	0.695
4.70802	0.7
4.74795	0.7
4.78787	0.715
4.8278	0.717
4.86773	0.72
4.90765	0.728
4.94758	0.731
4.9875	0.731
5.02743	0.712
5.06735	0.71
5.10728	0.73
5.14721	0.741
5.18713	0.756
5.22706	0.776
5.26698	0.773
5.30691	0.787
5.34683	0.789
5.38676	0.792
5.42669	0.81
5.46661	0.815
5.50654	0.812
5.54646	0.814
5.58639	0.822
5.62631	0.822
5.66624	0.807
5.70617	0.758
5.74609	0.592
5.78602	0.467
5.82594	0.356
5.86587	0.21
5.90579	0.09
5.94572	0.088
5.98565	0.315
6.02557	0.425
6.0655	0.133
6.10542	0.075
6.14535	0.175
6.18527	0.402
6.2252	0.294
6.26513	0.12
6.30505	0.401
6.34498	0.325
6.3849	0.462
6.42483	0.565
6.46475	0.611
6.50468	0.5
6.54461	0.495
6.58453	0.378
6.62446	0.205
6.66438	0.092
6.70431	0.064
6.74423	0.067
6.78416	0.085
6.82409	0.113
6.86401	0.18
6.90394	0.25
6.94386	0.151
6.98379	0.302
7.02371	0.43
7.06364	0.463
7.10357	0.467
7.14349	0.259
7.18342	0.108
7.22334	0.202
7.26327	0.452
7.30319	0.404
7.34312	0.442
7.38305	0.605
7.42297	0.671
7.4629	0.692
7.50282	0.7
7.54275	0.6
7.58267	0.225
7.6226	0.208
7.66253	0.305
7.70245	0.6
7.74238	0.618
7.7823	0.463
7.82223	0.169
7.86215	0.194
7.90208	0.231
7.94201	0.511
7.98193	0.402
8.02186	0.093
8.06178	0.041
8.10171	0.032
8.14163	0.029
8.18156	0.032
8.22149	0.059
8.26141	0.095
8.30134	0.162
8.34126	0.269
8.38119	0.337
8.42111	0.386
8.46104	0.452
8.50097	0.493
8.54089	0.401
8.58082	0.144
8.62074	0.1
8.66067	0.156
8.70059	0.307
8.74052	0.402
8.78045	0.442
8.82037	0.508
8.8603	0.485
8.90022	0.18
8.94015	0.087
8.98007	0.169
9.02	0.322
9.05993	0.462
9.09985	0.554
9.13978	0.587
9.1797	0.539
9.21963	0.578
9.25955	0.651
9.29948	0.687
9.33941	0.671
9.37933	0.449
9.41926	0.22
9.45918	0.416
9.49911	0.578
9.53903	0.634
9.57896	0.661
9.61889	0.677
9.65881	0.59
9.69874	0.485
9.73866	0.539
9.77859	0.379
9.81851	0.409
9.85844	0.585
9.89837	0.618
9.93829	0.449
9.97822	0.212
10.0181	0.279
10.0581	0.437
10.098	0.554
10.1379	0.608
10.1778	0.639
10.2178	0.648
10.2577	0.621
10.2976	0.641
10.3375	0.682
10.3775	0.671
10.4174	0.671
10.4573	0.708
10.4973	0.733
10.5372	0.731
10.5771	0.748
10.617	0.759
10.657	0.766
10.6969	0.741
10.7368	0.636
10.7767	0.625
10.8167	0.715
10.8566	0.786
10.8965	0.809
10.9364	0.825
10.9764	0.84
11.0163	0.847
11.0562	0.85
11.0961	0.856
11.1361	0.856
11.176	0.853
11.2159	0.851
11.2558	0.837
11.2958	0.725
11.3357	0.73
11.3756	0.791
11.4155	0.799
11.4555	0.791
11.4954	0.745
11.5353	0.652
11.5752	0.606
11.6152	0.656
11.6551	0.669
11.695	0.685
11.7349	0.768
11.7749	0.815
11.8148	0.86
11.8547	0.879
11.8947	0.893
11.9346	0.898
11.9745	0.902
12.0144	0.909
12.0544	0.909
12.0943	0.912
12.1342	0.914
12.1741	0.914
12.2141	0.899
12.254	0.837
12.2939	0.692
12.3338	0.577
12.3738	0.633
12.4137	0.82
12.4536	0.838
12.4935	0.809
12.5335	0.771
12.5734	0.674
12.6133	0.434
12.6532	0.279
12.6932	0.501
12.7331	0.582
12.773	0.516
12.8129	0.603
12.8529	0.74
12.8928	0.822
12.9327	0.848
12.9726	0.83
13.0126	0.768
13.0525	0.654
13.0924	0.485
13.1323	0.391
13.1723	0.312
13.2122	0.195
13.2521	0.146
13.2921	0.151
13.332	0.172
13.3719	0.233
13.4118	0.338
13.4518	0.48
13.4917	0.595
13.5316	0.648
13.5715	0.685
13.6115	0.694
13.6514	0.715
13.6913	0.728
13.7312	0.751
13.7712	0.766
13.8111	0.745
13.851	0.666
13.8909	0.626
13.9309	0.574
13.9708	0.457
14.0107	0.259
14.0506	0.125
14.0906	0.08
14.1305	0.111
14.1704	0.222
14.2103	0.401
14.2503	0.562
14.2902	0.639
14.3301	0.662
14.37	0.666
14.41	0.661
14.4499	0.702
14.4898	0.75
14.5297	0.789
14.5697	0.812
14.6096	0.84
14.6495	0.858
14.6895	0.866
14.7294	0.868
14.7693	0.873
14.8092	0.87
14.8492	0.875
14.8891	0.876
14.929	0.87
14.9689	0.828
15.0089	0.74
15.0488	0.677
15.0887	0.707
15.1286	0.771
15.1686	0.81
15.2085	0.825
15.2484	0.833
15.2883	0.84
15.3283	0.84
15.3682	0.833
15.4081	0.827
15.448	0.8
15.488	0.786
15.5279	0.774
15.5678	0.751
15.6077	0.712
15.6477	0.68
15.6876	0.649
15.7275	0.639
15.7674	0.641
15.8074	0.656
15.8473	0.671
15.8872	0.695
15.9271	0.702
15.9671	0.71
16.007	0.712
