Infrared Spectrum: Pyridine, 4-(fluoren-9-ylidenemethyl)-
Formula: C19 H13 N
CAS: 98638-46-1
State: SOLUTION (5% CCl4 FOR 3800-1330, 5% CS2 FOR 1330-400 CM^-^1) VS SOLVENT
Class: COBLENTZ III
Instrument: DOW KBr FOREPRISM-GRATING
Instrument parameters: BLAZED AT 3.5, 12.0, 20.0 MICRON AND CHANGED AT 5.0, 7.5, 14.9 MICRON
Sampling: TRANSMISSION
Path length: 0.011 CM, 0.011 CM
Resolution: 2
Origin: DOW CHEMICAL COMPANY
1/CM	TRANSMITTANCE
3800	0.8686
3791	0.8681
3782	0.8675
3773	0.8671
3764	0.8671
3755	0.8671
3746	0.8678
3737	0.8686
3728	0.8696
3719	0.8707
3710	0.8717
3701	0.8711
3692	0.8655
3683	0.8618
3674	0.8637
3665	0.866
3656	0.8674
3647	0.8674
3638	0.8674
3629	0.8674
3620	0.8674
3611	0.8675
3602	0.8685
3593	0.8699
3584	0.8708
3575	0.8698
3566	0.8696
3557	0.8696
3548	0.8694
3539	0.8692
3530	0.8686
3521	0.8675
3512	0.8665
3503	0.8654
3494	0.8642
3485	0.8628
3476	0.8618
3467	0.8609
3458	0.8602
3449	0.8593
3440	0.8586
3431	0.8578
3422	0.8573
3413	0.8566
3404	0.8558
3395	0.855
3386	0.8542
3377	0.8535
3368	0.8535
3359	0.8533
3350	0.8532
3341	0.8533
3332	0.8535
3323	0.8537
3314	0.8541
3305	0.8546
3296	0.8551
3287	0.8558
3278	0.8565
3269	0.8571
3260	0.8578
3251	0.8585
3242	0.859
3233	0.8594
3224	0.8598
3215	0.8596
3206	0.8594
3197	0.8586
3188	0.8575
3179	0.8557
3170	0.8536
3161	0.852
3152	0.8528
3143	0.8541
3134	0.8546
3125	0.8544
3116	0.8508
3107	0.8397
3098	0.7724
3089	0.7608
3080	0.7403
3071	0.6287
3062	0.6001
3053	0.6855
3044	0.711
3035	0.7168
3026	0.6971
3017	0.7419
3008	0.7971
2999	0.8168
2990	0.8202
2981	0.8038
2972	0.8081
2963	0.8192
2954	0.8275
2945	0.8339
2936	0.8385
2927	0.8396
2918	0.8393
2909	0.8401
2900	0.8414
2891	0.8425
2882	0.8441
2873	0.8467
2864	0.8488
2855	0.8505
2846	0.8521
2837	0.8538
2828	0.8543
2819	0.8546
2810	0.8553
2801	0.8551
2792	0.8544
2783	0.8542
2774	0.854
2765	0.854
2756	0.854
2747	0.8538
2738	0.8535
2729	0.8533
2720	0.8533
2711	0.8533
2702	0.8533
2693	0.8532
2684	0.8532
2675	0.8532
2666	0.8532
2657	0.8531
2648	0.8531
2639	0.8528
2630	0.8528
2621	0.853
2612	0.8531
2603	0.8532
2594	0.8532
2585	0.8532
2576	0.8536
2567	0.8539
2558	0.8547
2549	0.8553
2540	0.8564
2531	0.8575
2522	0.8581
2513	0.8584
2504	0.8587
2495	0.8589
2486	0.8591
2477	0.8589
2468	0.8583
2459	0.8571
2450	0.8559
2441	0.8541
2432	0.8525
2423	0.852
2414	0.8524
2405	0.853
2396	0.8537
2387	0.8562
2378	0.8625
2369	0.8665
2360	0.8681
2351	0.8683
2342	0.8666
2333	0.8653
2324	0.8627
2315	0.8599
2306	0.8574
2297	0.8568
2288	0.8574
2279	0.8586
2270	0.8593
2261	0.8597
2252	0.8597
2243	0.8587
2234	0.8575
2225	0.8571
2216	0.8574
2207	0.857
2198	0.8566
2189	0.8563
2180	0.8563
2171	0.856
2162	0.856
2153	0.856
2144	0.856
2135	0.8562
2126	0.8566
2117	0.857
2108	0.8574
2099	0.8571
2090	0.857
2081	0.8567
2072	0.8562
2063	0.8553
2054	0.8545
2045	0.8536
2036	0.8535
2027	0.8537
2018	0.8545
2009	0.857
2000	0.8611
1991	0.8582
1982	0.8546
1973	0.8548
1964	0.8525
1955	0.84
1946	0.8051
1937	0.8082
1928	0.841
1919	0.8339
1910	0.8207
1901	0.8405
1892	0.8482
1883	0.8444
1874	0.8392
1865	0.8427
1856	0.8474
1847	0.8434
1838	0.8408
1829	0.8425
1820	0.8514
1811	0.8452
1802	0.8363
1793	0.8395
1784	0.8489
1775	0.8477
1766	0.8458
1757	0.843
1748	0.8397
1739	0.8358
1730	0.8317
1721	0.8263
1712	0.8209
1703	0.8245
1694	0.8278
1685	0.8228
1676	0.8203
1667	0.8241
1658	0.8287
1649	0.8245
1640	0.8134
1631	0.8171
1622	0.8151
1613	0.7878
1604	0.6315
1595	0.1401
1586	0.6506
1577	0.731
1568	0.7825
1559	0.806
1550	0.8036
1541	0.7375
1532	0.7976
1523	0.8111
1514	0.8141
1505	0.8126
1496	0.7962
1487	0.7917
1478	0.7904
1469	0.8087
1460	0.7874
1451	0.3155
1442	0.6521
1433	0.7186
1424	0.7497
1415	0.6738
1406	0.7107
1397	0.7617
1388	0.7528
1379	0.7583
1370	0.7574
1361	0.7485
1352	0.6717
1343	0.7464
1334	0.774
1325	0.7765
1316	0.7819
1307	0.7808
1298	0.7712
1289	0.7615
1280	0.6503
1271	0.7758
1262	0.7932
1253	0.8003
1244	0.8018
1235	0.7997
1226	0.7858
1217	0.7453
1208	0.7439
1199	0.81
1190	0.8199
1181	0.8225
1172	0.8373
1163	0.8299
1154	0.8069
1145	0.835
1136	0.8388
1127	0.8555
1118	0.8611
1109	0.8196
1100	0.8514
1091	0.8504
1082	0.808
1073	0.8309
1064	0.8185
1055	0.8371
1046	0.8364
1037	0.8321
1028	0.8176
1019	0.8126
1010	0.7912
1001	0.7947
992	0.7582
983	0.7858
974	0.7985
965	0.8093
956	0.8075
947	0.8071
938	0.7271
929	0.7811
920	0.8126
911	0.8207
902	0.8193
893	0.8181
884	0.8084
875	0.7465
866	0.7254
857	0.7128
848	0.7437
839	0.7558
830	0.8018
821	0.7926
812	0.7019
803	0.8071
794	0.8101
785	0.3366
776	0.1246
767	0.7448
758	0.8054
749	0.7668
740	0.5924
731	0.0402
722	0.7087
713	0.8259
704	0.8446
695	0.8485
686	0.8504
677	0.8502
668	0.8273
659	0.7592
650	0.8386
641	0.8518
632	0.8551
623	0.8334
614	0.8345
605	0.8581
596	0.8605
587	0.8296
578	0.8137
569	0.8651
560	0.8643
551	0.8506
542	0.8478
533	0.8851
524	0.8837
515	0.8328
506	0.8471
497	0.8478
488	0.8731
479	0.8843
470	0.8904
461	0.8935
452	0.8912
443	0.8702
434	0.8706
425	0.8768
416	0.8777
407	0.8804
398	0.8841
389	0.888
