Infrared Spectrum: O-NITRO CARBANILIC ACID, CARVEOL ESTER
Formula: C17 H20 N2 O4
CAS: 98657-68-2
State: SOLID (1.7 mg / 100 mg KBr)
Class: COBLENTZ
Instrument: Not specified, most likely a grating spectrometer.
Sampling: TRANSMISSION
Resolution: 4
Origin: CITRUS EXPERIMENT STATION, UNIVERSITY OF FLORIDA (G. EDWARDS)
MICROMETERS	TRANSMITTANCE
2.04	0.398
2.07319	0.399
2.10638	0.4
2.13957	0.402
2.17277	0.407
2.20596	0.408
2.23915	0.41
2.27234	0.411
2.30553	0.412
2.33872	0.415
2.37191	0.418
2.40511	0.419
2.4383	0.423
2.47149	0.426
2.50468	0.431
2.53787	0.439
2.57106	0.439
2.60425	0.44
2.63745	0.44
2.67064	0.442
2.70383	0.446
2.73702	0.45
2.77021	0.45
2.8034	0.45
2.83659	0.451
2.86979	0.45
2.90298	0.448
2.93617	0.414
2.96936	0.42
3.00255	0.456
3.03574	0.464
3.06893	0.471
3.10213	0.471
3.13532	0.472
3.16851	0.474
3.2017	0.471
3.23489	0.471
3.26808	0.476
3.30127	0.475
3.33447	0.463
3.36766	0.448
3.40085	0.456
3.43404	0.47
3.46723	0.48
3.50042	0.49
3.53362	0.507
3.56681	0.512
3.6	0.519
3.63319	0.52
3.66638	0.524
3.69957	0.527
3.73276	0.528
3.76596	0.532
3.79915	0.533
3.83234	0.536
3.86553	0.537
3.89872	0.54
3.93191	0.544
3.9651	0.551
3.9983	0.551
4.03149	0.553
4.06468	0.556
4.09787	0.559
4.13106	0.561
4.16425	0.565
4.19744	0.584
4.23064	0.591
4.26383	0.591
4.29702	0.588
4.33021	0.585
4.3634	0.585
4.39659	0.585
4.42978	0.589
4.46298	0.591
4.49617	0.595
4.52936	0.603
4.56255	0.604
4.59574	0.609
4.62893	0.611
4.66212	0.612
4.69532	0.616
4.72851	0.621
4.7617	0.623
4.79489	0.628
4.82808	0.629
4.86127	0.632
4.89446	0.633
4.92766	0.636
4.96085	0.639
4.99404	0.64
5.02723	0.641
5.06042	0.644
5.09361	0.647
5.1268	0.649
5.16	0.655
5.19319	0.656
5.22638	0.66
5.25957	0.66
5.29276	0.661
5.32595	0.663
5.35914	0.667
5.39234	0.665
5.42553	0.668
5.45872	0.671
5.49191	0.671
5.5251	0.672
5.55829	0.671
5.59148	0.667
5.62468	0.664
5.65787	0.648
5.69106	0.545
5.72425	0.428
5.75744	0.458
5.79063	0.547
5.82382	0.649
5.85702	0.66
5.89021	0.661
5.9234	0.663
5.95659	0.661
5.98978	0.663
6.02297	0.661
6.05616	0.652
6.08936	0.66
6.12255	0.663
6.15574	0.607
6.18893	0.495
6.22212	0.536
6.25531	0.6
6.28851	0.52
6.3217	0.541
6.35489	0.669
6.38808	0.667
6.42127	0.655
6.45446	0.624
6.48765	0.593
6.52085	0.513
6.55404	0.382
6.58723	0.352
6.62042	0.347
6.65361	0.451
6.6868	0.565
6.71999	0.639
6.75319	0.675
6.78638	0.679
6.81957	0.628
6.85276	0.531
6.88595	0.551
6.91914	0.512
6.95233	0.446
6.98553	0.491
7.01872	0.573
7.05191	0.629
7.0851	0.64
7.11829	0.673
7.15148	0.685
7.18467	0.689
7.21787	0.681
7.25106	0.676
7.28425	0.692
7.31744	0.692
7.35063	0.675
7.38382	0.636
7.41701	0.49
7.45021	0.407
7.4834	0.531
7.51659	0.624
7.54978	0.641
7.58297	0.608
7.61616	0.637
7.64935	0.659
7.68255	0.66
7.71574	0.639
7.74893	0.613
7.78212	0.583
7.81531	0.553
7.8485	0.571
7.88169	0.608
7.91489	0.641
7.94808	0.669
7.98127	0.66
8.01446	0.543
8.04765	0.423
8.08084	0.4
8.11403	0.531
8.14723	0.617
8.18042	0.659
8.21361	0.657
8.2468	0.635
8.27999	0.553
8.31318	0.427
8.34637	0.36
8.37957	0.43
8.41276	0.569
8.44595	0.649
8.47914	0.672
8.51233	0.668
8.54552	0.653
8.57871	0.632
8.61191	0.621
8.6451	0.596
8.67829	0.609
8.71148	0.619
8.74467	0.661
8.77786	0.725
8.81105	0.757
8.84425	0.768
8.87744	0.77
8.91063	0.773
8.94382	0.773
8.97701	0.77
9.0102	0.773
9.0434	0.78
9.07659	0.788
9.10978	0.782
9.14297	0.762
9.17616	0.735
9.20935	0.725
9.24254	0.741
9.27574	0.764
9.30893	0.778
9.34212	0.793
9.37531	0.806
9.4085	0.802
9.44169	0.794
9.47488	0.788
9.50808	0.768
9.54127	0.731
9.57446	0.677
9.60765	0.603
9.64084	0.5
9.67403	0.513
9.70722	0.555
9.74042	0.611
9.77361	0.665
9.8068	0.712
9.83999	0.737
9.87318	0.758
9.90637	0.778
9.93956	0.793
9.97276	0.801
10.0059	0.802
10.0391	0.802
10.0723	0.8
10.1055	0.8
10.1387	0.802
10.1719	0.806
10.2051	0.812
10.2383	0.82
10.2715	0.826
10.3047	0.83
10.3379	0.828
10.3711	0.808
10.4042	0.786
10.4374	0.793
10.4706	0.809
10.5038	0.826
10.537	0.83
10.5702	0.828
10.6034	0.818
10.6366	0.784
10.6698	0.733
10.703	0.705
10.7362	0.729
10.7694	0.76
10.8025	0.76
10.8357	0.729
10.8689	0.708
10.9021	0.739
10.9353	0.782
10.9685	0.817
11.0017	0.826
11.0349	0.832
11.0681	0.832
11.1013	0.825
11.1345	0.808
11.1676	0.792
11.2008	0.777
11.234	0.77
11.2672	0.774
11.3004	0.785
11.3336	0.798
11.3668	0.81
11.4	0.822
11.4332	0.841
11.4664	0.849
11.4996	0.85
11.5328	0.837
11.5659	0.814
11.5991	0.753
11.6323	0.729
11.6655	0.789
11.6987	0.832
11.7319	0.862
11.7651	0.869
11.7983	0.87
11.8315	0.87
11.8647	0.873
11.8979	0.881
11.9311	0.882
11.9642	0.882
11.9974	0.882
12.0306	0.876
12.0638	0.872
12.097	0.872
12.1302	0.868
12.1634	0.861
12.1966	0.848
12.2298	0.83
12.263	0.814
12.2962	0.808
12.3293	0.813
12.3625	0.822
12.3957	0.83
12.4289	0.837
12.4621	0.837
12.4953	0.838
12.5285	0.849
12.5617	0.854
12.5949	0.861
12.6281	0.866
12.6613	0.866
12.6945	0.861
12.7276	0.836
12.7608	0.809
12.794	0.786
12.8272	0.79
12.8604	0.821
12.8936	0.853
12.9268	0.864
12.96	0.857
12.9932	0.848
13.0264	0.828
13.0596	0.805
13.0928	0.798
13.1259	0.808
13.1591	0.83
13.1923	0.854
13.2255	0.869
13.2587	0.877
13.2919	0.872
13.3251	0.86
13.3583	0.834
13.3915	0.806
13.4247	0.758
13.4579	0.705
13.491	0.668
13.5242	0.659
13.5574	0.68
13.5906	0.723
13.6238	0.774
13.657	0.82
13.6902	0.85
13.7234	0.861
13.7566	0.878
13.7898	0.886
13.823	0.894
13.8562	0.902
13.8893	0.905
13.9225	0.909
13.9557	0.912
13.9889	0.909
14.0221	0.906
14.0553	0.905
14.0885	0.908
14.1217	0.905
14.1549	0.905
14.1881	0.908
14.2213	0.909
14.2545	0.908
14.2876	0.901
14.3208	0.893
14.354	0.882
14.3872	0.88
14.4204	0.874
14.4536	0.866
14.4868	0.853
14.52	0.844
14.5532	0.845
14.5864	0.852
14.6196	0.856
14.6527	0.853
14.6859	0.846
14.7191	0.841
14.7523	0.838
14.7855	0.84
14.8187	0.841
14.8519	0.844
14.8851	0.841
14.9183	0.832
14.9515	0.822
14.9847	0.83
15.0179	0.872
15.051	0.868
