Infrared Spectrum: SULFONE, TERT-BUTYL 2-CHLOROETHYL
Formula: C6 H13 Cl O2 S
CAS: 98785-33-2
State: SOLID (MULL)
Class: COBLENTZ
Instrument: Not specified, most likely a prism, grating, or hybrid spectrometer.
Sampling: TRANSMISSION
Resolution: 4
Origin: TENNESSEE EASTMAN COMPANY, RESEARCH LABORATORIES
MICROMETERS	TRANSMITTANCE
2.037	0.9
2.07687	0.9
2.11673	0.9
2.1566	0.9
2.19646	0.9
2.23633	0.9
2.27619	0.895
2.31606	0.881
2.35593	0.875
2.39579	0.875
2.43566	0.876
2.47552	0.876
2.51539	0.881
2.55525	0.885
2.59512	0.891
2.63499	0.896
2.67485	0.9
2.71472	0.898
2.75458	0.9
2.79445	0.9
2.83431	0.896
2.87418	0.896
2.91405	0.898
2.95391	0.896
2.99378	0.896
3.03364	0.896
3.07351	0.896
3.11337	0.896
3.15324	0.893
3.19311	0.885
3.23297	0.883
3.27284	0.871
3.3127	0.828
3.35257	0.695
3.39243	0.359
3.4323	0.138
3.47217	0.262
3.51203	0.277
3.5519	0.599
3.59176	0.818
3.63163	0.856
3.67149	0.871
3.71136	0.87
3.75123	0.866
3.79109	0.871
3.83096	0.88
3.87082	0.88
3.91069	0.885
3.95055	0.895
3.99042	0.9
4.03029	0.901
4.07015	0.903
4.11002	0.905
4.14988	0.905
4.18975	0.905
4.22961	0.908
4.26948	0.953
4.30935	0.956
4.34921	0.941
4.38908	0.91
4.42894	0.911
4.46881	0.913
4.50867	0.913
4.54854	0.913
4.58841	0.911
4.62827	0.913
4.66814	0.915
4.708	0.918
4.74787	0.916
4.78773	0.916
4.8276	0.918
4.86747	0.915
4.90733	0.916
4.9472	0.916
4.98706	0.918
5.02693	0.918
5.06679	0.916
5.10666	0.916
5.14653	0.918
5.18639	0.915
5.22626	0.916
5.26612	0.916
5.30599	0.916
5.34585	0.915
5.38572	0.915
5.42559	0.915
5.46545	0.915
5.50532	0.915
5.54518	0.916
5.58505	0.916
5.62491	0.915
5.66478	0.915
5.70465	0.911
5.74451	0.911
5.78438	0.91
5.82424	0.91
5.86411	0.908
5.90397	0.908
5.94384	0.903
5.98371	0.905
6.02357	0.9
6.06344	0.908
6.1033	0.9
6.14317	0.901
6.18303	0.905
6.2229	0.9
6.26277	0.906
6.30263	0.906
6.3425	0.908
6.38236	0.908
6.42223	0.903
6.46209	0.908
6.50196	0.896
6.54183	0.9
6.58169	0.895
6.62156	0.886
6.66142	0.876
6.70129	0.838
6.74115	0.767
6.78102	0.592
6.82089	0.505
6.86075	0.507
6.90062	0.589
6.94048	0.725
6.98035	0.813
7.02021	0.838
7.06008	0.82
7.09995	0.836
7.13981	0.838
7.17968	0.833
7.21954	0.703
7.25941	0.62
7.29927	0.663
7.33914	0.698
7.37901	0.798
7.41887	0.811
7.45874	0.816
7.4986	0.811
7.53847	0.8
7.57833	0.762
7.6182	0.667
7.65807	0.643
7.69793	0.45
7.7378	0.59
7.77766	0.742
7.81753	0.772
7.85739	0.725
7.89726	0.59
7.93713	0.47
7.97699	0.569
8.01686	0.72
8.05672	0.767
8.09659	0.798
8.13645	0.823
8.17632	0.825
8.21619	0.828
8.25605	0.825
8.29592	0.825
8.33578	0.825
8.37565	0.826
8.41551	0.831
8.45538	0.835
8.49525	0.84
8.53511	0.836
8.57498	0.836
8.61484	0.83
8.65471	0.821
8.69457	0.821
8.73444	0.818
8.77431	0.79
8.81417	0.748
8.85404	0.707
8.8939	0.66
8.93377	0.515
8.97363	0.341
9.0135	0.397
9.05337	0.57
9.09323	0.7
9.1331	0.768
9.17296	0.798
9.21283	0.821
9.25269	0.831
9.29256	0.838
9.33243	0.84
9.37229	0.846
9.41216	0.853
9.45202	0.853
9.49189	0.853
9.53175	0.85
9.57162	0.826
9.61149	0.83
9.65135	0.846
9.69122	0.858
9.73108	0.86
9.77095	0.845
9.81081	0.826
9.85068	0.838
9.89055	0.856
9.93041	0.865
9.97028	0.866
10.0101	0.871
10.05	0.871
10.0899	0.873
10.1297	0.873
10.1696	0.873
10.2095	0.871
10.2493	0.87
10.2892	0.868
10.3291	0.866
10.3689	0.868
10.4088	0.868
10.4487	0.868
10.4885	0.868
10.5284	0.86
10.5683	0.853
10.6081	0.851
10.648	0.861
10.6879	0.866
10.7277	0.871
10.7676	0.878
10.8075	0.878
10.8473	0.885
10.8872	0.886
10.9271	0.888
10.9669	0.891
11.0068	0.896
11.0467	0.896
11.0865	0.898
11.1264	0.898
11.1662	0.898
11.2061	0.898
11.246	0.9
11.2858	0.9
11.3257	0.9
11.3656	0.901
11.4054	0.901
11.4453	0.903
11.4852	0.906
11.525	0.906
11.5649	0.906
11.6048	0.906
11.6446	0.905
11.6845	0.905
11.7244	0.906
11.7642	0.905
11.8041	0.903
11.844	0.903
11.8838	0.903
11.9237	0.903
11.9636	0.903
12.0034	0.903
12.0433	0.903
12.0832	0.901
12.123	0.898
12.1629	0.893
12.2028	0.885
12.2426	0.876
12.2825	0.863
12.3224	0.846
12.3622	0.838
12.4021	0.835
12.442	0.843
12.4818	0.856
12.5217	0.861
12.5615	0.865
12.6014	0.865
12.6413	0.865
12.6811	0.863
12.721	0.86
12.7609	0.856
12.8007	0.84
12.8406	0.835
12.8805	0.826
12.9203	0.816
12.9602	0.8
13.0001	0.787
13.0399	0.775
13.0798	0.768
13.1197	0.767
13.1595	0.767
13.1994	0.772
13.2393	0.783
13.2791	0.788
13.319	0.792
13.3589	0.787
13.3987	0.772
13.4386	0.768
13.4785	0.768
13.5183	0.77
13.5582	0.78
13.5981	0.785
13.6379	0.788
13.6778	0.79
13.7177	0.79
13.7575	0.79
13.7974	0.788
13.8373	0.788
13.8771	0.788
13.917	0.79
13.9568	0.793
13.9967	0.797
14.0366	0.797
14.0764	0.795
14.1163	0.795
14.1562	0.795
14.196	0.795
14.2359	0.798
14.2758	0.798
14.3156	0.798
14.3555	0.792
14.3954	0.79
14.4352	0.788
14.4751	0.782
14.515	0.78
14.5548	0.778
14.5947	0.772
14.6346	0.77
14.6744	0.768
14.7143	0.765
14.7542	0.758
14.794	0.755
14.8339	0.753
14.8738	0.748
14.9136	0.745
14.9535	0.745
14.9934	0.747
15.0332	0.745
15.0731	0.73
15.113	0.718
15.1528	0.715
15.1927	0.713
15.2326	0.712
15.2724	0.708
15.3123	0.703
15.3521	0.7
15.392	0.698
15.4319	0.695
15.4717	0.687
15.5116	0.677
15.5515	0.663
15.5913	0.658
15.6312	0.65
15.6711	0.643
15.7109	0.642
15.7508	0.642
15.7907	0.643
15.8305	0.645
15.8704	0.645
15.9103	0.647
15.9501	0.65
15.99	0.652
