Infrared Spectrum: Disulfide, bis[N(Benzothiazol-2-yl)-2-Aminoethyl]
Formula: C18 H18 N4 S4
CAS: 98782-06-0
State: SOLID (0.9 mg / 650 mg KBr DISC)
Class: COBLENTZ III
Instrument: PERKIN-ELMER 21 (GRATING)
Instrument parameters: FILTER CHANGE ABOUT 1025 CM^-^1
Sampling: TRANSMISSION
Resolution: 2
Origin: SOUTHERN RESEARCH INSTITUTE
1/CM	TRANSMITTANCE
606	0.7735
615	0.7725
624	0.7684
633	0.7589
642	0.7465
651	0.7367
660	0.7335
669	0.7283
678	0.7087
687	0.6786
696	0.6535
705	0.6927
714	0.6608
723	0.589
732	0.7032
741	0.5945
750	0.4196
759	0.679
768	0.7257
777	0.7416
786	0.7688
795	0.8011
804	0.8423
813	0.8561
822	0.8604
831	0.8583
840	0.8497
849	0.8435
858	0.8572
867	0.8453
876	0.8089
885	0.756
894	0.8752
903	0.8703
912	0.8633
921	0.8562
930	0.8496
939	0.8445
948	0.8398
957	0.8351
966	0.8289
975	0.8202
984	0.7947
993	0.8053
1002	0.8031
1011	0.7563
1020	0.7328
1029	0.8216
1038	0.8197
1047	0.806
1056	0.7939
1065	0.8124
1074	0.8028
1083	0.7806
1092	0.6913
1101	0.7194
1110	0.8022
1119	0.7775
1128	0.7687
1137	0.8197
1146	0.806
1155	0.7852
1164	0.7711
1173	0.5394
1182	0.7569
1191	0.8275
1200	0.8208
1209	0.7549
1218	0.7504
1227	0.7852
1236	0.7924
1245	0.7816
1254	0.6983
1263	0.604
1272	0.5131
1281	0.7613
1290	0.7624
1299	0.7963
1308	0.7634
1317	0.7586
1326	0.7487
1335	0.6614
1344	0.6796
1353	0.6067
1362	0.7836
1371	0.7975
1380	0.7911
1389	0.7728
1398	0.7444
1407	0.6952
1416	0.6829
1425	0.5832
1434	0.3744
1443	0.4886
1452	0.4933
1461	0.5807
1470	0.4526
1479	0.5958
1488	0.7752
1497	0.7969
1506	0.798
1515	0.7842
1524	0.7484
1533	0.6866
1542	0.6
1551	0.5386
1560	0.4851
1569	0.3703
1578	0.5093
1587	0.6803
1596	0.6233
1605	0.3841
1614	0.2167
1623	0.3677
1632	0.6317
1641	0.792
1650	0.8498
1659	0.8814
1668	0.8964
1677	0.9026
1686	0.9047
1695	0.9047
1704	0.9041
1713	0.904
1722	0.9058
1731	0.9074
1740	0.9059
1749	0.8975
1758	0.8983
1767	0.9072
1776	0.911
1785	0.9119
1794	0.9112
1803	0.9096
1812	0.9079
1821	0.9053
1830	0.9025
1839	0.9
1848	0.8971
1857	0.8954
1866	0.8942
1875	0.8931
1884	0.8925
1893	0.8918
1902	0.891
1911	0.8906
1920	0.8914
1929	0.8932
1938	0.8941
1947	0.8935
1956	0.8925
1965	0.8915
1974	0.8901
1983	0.8883
1992	0.8863
2001	0.8841
2010	0.8812
2019	0.8788
2028	0.8778
2037	0.8767
2046	0.8759
2055	0.8752
2064	0.8743
2073	0.8725
2082	0.8708
2091	0.8691
2100	0.8676
2109	0.8661
2118	0.8646
2127	0.8631
2136	0.8614
2145	0.8594
2154	0.8574
2163	0.8554
2172	0.8535
2181	0.8516
2190	0.8497
2199	0.8478
2208	0.8465
2217	0.8457
2226	0.845
2235	0.8435
2244	0.8418
2253	0.8385
2262	0.835
2271	0.8295
2280	0.8231
2289	0.8169
2298	0.811
2307	0.809
2316	0.8098
2325	0.8111
2334	0.8121
2343	0.8129
2352	0.8132
2361	0.8145
2370	0.8139
2379	0.8129
2388	0.8111
2397	0.8075
2406	0.8041
2415	0.8007
2424	0.7966
2433	0.7929
2442	0.7903
2451	0.7878
2460	0.7855
2469	0.7844
2478	0.7833
2487	0.7823
2496	0.7809
2505	0.7788
2514	0.7766
2523	0.7735
2532	0.767
2541	0.7603
2550	0.7524
2559	0.7448
2568	0.7375
2577	0.7296
2586	0.7219
2595	0.7144
2604	0.7073
2613	0.7012
2622	0.6954
2631	0.6899
2640	0.6843
2649	0.6781
2658	0.6719
2667	0.6655
2676	0.6589
2685	0.6523
2694	0.6454
2703	0.6379
2712	0.6306
2721	0.6235
2730	0.6152
2739	0.6043
2748	0.5927
2757	0.5835
2766	0.5749
2775	0.5634
2784	0.5503
2793	0.5375
2802	0.5252
2811	0.5135
2820	0.5035
2829	0.4955
2838	0.49
2847	0.4863
2856	0.4847
2865	0.4843
2874	0.485
2883	0.4876
2892	0.5098
2901	0.534
2910	0.5397
2919	0.5439
2928	0.5519
2937	0.5647
2946	0.5762
2955	0.5894
2964	0.6063
2973	0.6218
2982	0.6362
2991	0.6476
3000	0.6544
3009	0.6559
3018	0.6536
3027	0.6473
3036	0.6414
3045	0.6408
3054	0.6405
3063	0.6401
3072	0.6406
3081	0.6416
3090	0.644
3099	0.6506
3108	0.6649
3117	0.6732
3126	0.674
3135	0.6741
3144	0.6732
3153	0.6701
3162	0.6583
3171	0.6434
3180	0.6398
3189	0.6468
3198	0.6546
3207	0.6532
3216	0.6529
3225	0.665
3234	0.6802
3243	0.6948
3252	0.7061
3261	0.7098
3270	0.7121
3279	0.7124
3288	0.7103
3297	0.7067
3306	0.702
3315	0.6965
3324	0.6911
3333	0.6822
3342	0.6728
3351	0.6638
3360	0.653
3369	0.6418
3378	0.6319
3387	0.6264
3396	0.6224
3405	0.6207
3414	0.6212
3423	0.6218
3432	0.6231
3441	0.6243
3450	0.6251
3459	0.6259
3468	0.6274
3477	0.6297
3486	0.6347
3495	0.6487
3504	0.6508
3513	0.6543
3522	0.6589
3531	0.6634
3540	0.6678
3549	0.6742
3558	0.6805
3567	0.6869
3576	0.6912
3585	0.6953
3594	0.7022
3603	0.7117
3612	0.721
3621	0.7297
3630	0.7357
3639	0.7391
3648	0.7411
3657	0.7427
3666	0.7438
3675	0.7449
3684	0.7462
3693	0.7464
3702	0.7464
3711	0.746
3720	0.7454
3729	0.7446
3738	0.7445
3747	0.7444
3756	0.7443
3765	0.7443
3774	0.7445
3783	0.7445
3792	0.7421
3801	0.7352
3810	0.7304
3819	0.7294
3828	0.7292
3837	0.7294
3846	0.7299
3855	0.7307
3864	0.732
3873	0.7328
3882	0.7327
3891	0.7304
3900	0.726
3909	0.7222
3918	0.7198
3927	0.7176
3936	0.7154
3945	0.7136
3954	0.7124
3963	0.7116
3972	0.7106
3981	0.7087
3990	0.7058
3999	0.7029
