Infrared Spectrum: PHOSPHORIC TRIAMIDE, N,N',N''-p-BUTYL PHENYL-,
Formula: C30 H42 N3 O P
CAS: 98879-03-9
State: SOLID (KBr PELLET)
Class: COBLENTZ
Instrument: PERKIN-ELMER
Sampling: TRANSMISSION
Resolution: 4
Origin: STANDARD OIL OF OHIO
MICROMETERS	TRANSMITTANCE
2.013	0.941
2.04675	0.941
2.0805	0.943
2.11425	0.941
2.148	0.938
2.18175	0.936
2.2155	0.94
2.24925	0.941
2.283	0.931
2.31675	0.924
2.3505	0.926
2.38425	0.928
2.418	0.931
2.45175	0.928
2.4855	0.928
2.51925	0.93
2.553	0.93
2.58675	0.931
2.6205	0.931
2.65425	0.933
2.688	0.93
2.72175	0.902
2.7555	0.817
2.78925	0.737
2.823	0.634
2.85675	0.547
2.8905	0.503
2.92425	0.474
2.958	0.465
2.99175	0.462
3.0255	0.43
3.05925	0.327
3.093	0.3
3.12675	0.329
3.1605	0.418
3.19425	0.573
3.228	0.648
3.26175	0.631
3.2955	0.609
3.32925	0.653
3.363	0.264
3.39675	0.175
3.4305	0.296
3.46425	0.394
3.498	0.424
3.53175	0.721
3.5655	0.825
3.59925	0.86
3.633	0.877
3.66675	0.89
3.7005	0.902
3.73425	0.912
3.768	0.919
3.80175	0.923
3.8355	0.928
3.86925	0.933
3.903	0.936
3.93675	0.933
3.9705	0.931
4.00425	0.936
4.038	0.941
4.07175	0.945
4.1055	0.947
4.13925	0.948
4.173	0.948
4.20675	0.95
4.2405	0.95
4.27425	0.95
4.308	0.948
4.34175	0.947
4.3755	0.948
4.40925	0.948
4.443	0.948
4.47675	0.948
4.5105	0.948
4.54425	0.947
4.578	0.947
4.61175	0.943
4.6455	0.941
4.67925	0.94
4.713	0.938
4.74675	0.936
4.7805	0.935
4.81425	0.933
4.848	0.931
4.88175	0.928
4.9155	0.928
4.94925	0.93
4.983	0.93
5.01675	0.93
5.0505	0.931
5.08425	0.931
5.118	0.931
5.15175	0.93
5.1855	0.926
5.21925	0.918
5.253	0.902
5.28675	0.883
5.3205	0.901
5.35425	0.919
5.388	0.928
5.42175	0.933
5.4555	0.936
5.48925	0.936
5.523	0.933
5.55675	0.93
5.5905	0.924
5.62425	0.918
5.658	0.914
5.69175	0.914
5.7255	0.916
5.75925	0.914
5.793	0.912
5.82675	0.909
5.8605	0.911
5.89425	0.911
5.928	0.911
5.96175	0.901
5.9955	0.854
6.02925	0.805
6.063	0.745
6.09675	0.72
6.1305	0.559
6.16425	0.377
6.198	0.433
6.23175	0.74
6.2655	0.773
6.29925	0.824
6.333	0.873
6.36675	0.883
6.4005	0.87
6.43425	0.843
6.468	0.805
6.50175	0.694
6.5355	0.474
6.56925	0.145
6.603	0.034
6.63675	0.324
6.6705	0.563
6.70425	0.547
6.738	0.491
6.77175	0.356
6.8055	0.238
6.83925	0.191
6.873	0.244
6.90675	0.404
6.9405	0.552
6.97425	0.674
7.008	0.786
7.04175	0.798
7.0755	0.759
7.10925	0.651
7.143	0.484
7.17675	0.349
7.2105	0.266
7.24425	0.257
7.278	0.395
7.31175	0.511
7.3455	0.607
7.37925	0.667
7.413	0.703
7.44675	0.721
7.4805	0.744
7.51425	0.747
7.548	0.708
7.58175	0.668
7.6155	0.617
7.64925	0.503
7.683	0.395
7.71675	0.255
7.7505	0.16
7.78425	0.15
7.818	0.199
7.85175	0.344
7.8855	0.464
7.91925	0.602
7.953	0.612
7.98675	0.552
8.0205	0.482
8.05425	0.402
8.088	0.322
8.12175	0.249
8.1555	0.237
8.18925	0.327
8.223	0.428
8.25675	0.486
8.2905	0.5
8.32425	0.488
8.358	0.438
8.39175	0.363
8.4255	0.267
8.45925	0.199
8.493	0.153
8.52675	0.139
8.5605	0.15
8.59425	0.175
8.628	0.242
8.66175	0.395
8.6955	0.547
8.72925	0.629
8.763	0.703
8.79675	0.755
8.8305	0.752
8.86425	0.704
8.898	0.684
8.93175	0.686
8.9655	0.773
8.99925	0.807
9.033	0.812
9.06675	0.802
9.1005	0.807
9.13425	0.813
9.168	0.82
9.20175	0.815
9.2355	0.8
9.26925	0.784
9.303	0.774
9.33675	0.778
9.3705	0.793
9.40425	0.805
9.438	0.808
9.47175	0.802
9.5055	0.791
9.53925	0.784
9.573	0.781
9.60675	0.783
9.6405	0.786
9.67425	0.788
9.708	0.783
9.74175	0.754
9.7755	0.656
9.80925	0.517
9.843	0.561
9.87675	0.694
9.9105	0.689
9.94425	0.624
9.978	0.518
10.0118	0.419
10.0455	0.302
10.0793	0.215
10.113	0.186
10.1468	0.186
10.1805	0.211
10.2143	0.288
10.248	0.339
10.2818	0.372
10.3155	0.402
10.3493	0.418
10.383	0.424
10.4168	0.418
10.4505	0.392
10.4843	0.36
10.518	0.3
10.5518	0.249
10.5855	0.199
10.6193	0.131
10.653	0.122
10.6868	0.133
10.7205	0.158
10.7543	0.213
10.788	0.286
10.8218	0.356
10.8555	0.423
10.8893	0.489
10.923	0.554
10.9568	0.6
10.9905	0.648
11.0243	0.68
11.058	0.708
11.0918	0.725
11.1255	0.737
11.1593	0.771
11.193	0.786
11.2268	0.79
11.2605	0.791
11.2943	0.793
11.328	0.8
11.3618	0.81
11.3955	0.817
11.4293	0.827
11.463	0.839
11.4968	0.844
11.5305	0.844
11.5643	0.837
11.598	0.82
11.6318	0.793
11.6655	0.75
11.6993	0.718
11.733	0.684
11.7668	0.662
11.8005	0.651
11.8343	0.629
11.868	0.6
11.9018	0.549
11.9355	0.501
11.9693	0.457
12.003	0.418
12.0368	0.397
12.0705	0.387
12.1043	0.382
12.138	0.383
12.1718	0.392
12.2055	0.411
12.2393	0.443
12.273	0.474
12.3068	0.517
12.3405	0.551
12.3743	0.585
12.408	0.616
12.4418	0.65
12.4755	0.667
12.5093	0.67
12.543	0.677
12.5768	0.686
12.6105	0.701
12.6443	0.718
12.678	0.725
12.7118	0.728
12.7455	0.728
12.7793	0.726
12.813	0.726
12.8468	0.73
12.8805	0.733
12.9143	0.738
12.948	0.744
12.9818	0.749
13.0155	0.75
13.0493	0.752
13.083	0.752
13.1168	0.752
13.1505	0.75
13.1843	0.749
13.218	0.747
13.2518	0.745
13.2855	0.744
13.3193	0.744
13.353	0.745
13.3868	0.752
13.4205	0.759
13.4543	0.762
13.488	0.762
13.5218	0.761
13.5555	0.761
13.5893	0.757
13.623	0.755
13.6568	0.749
13.6905	0.737
13.7243	0.723
13.758	0.72
13.7918	0.723
13.8255	0.728
13.8593	0.735
13.893	0.74
13.9268	0.744
13.9605	0.745
13.9943	0.747
14.028	0.747
14.0618	0.747
14.0955	0.749
14.1293	0.749
14.163	0.749
14.1968	0.749
14.2305	0.749
14.2643	0.749
14.298	0.749
14.3318	0.749
14.3655	0.749
14.3993	0.749
14.433	0.749
14.4668	0.75
14.5005	0.75
14.5343	0.75
14.568	0.75
14.6018	0.75
14.6355	0.749
14.6693	0.749
14.703	0.749
14.7368	0.747
14.7705	0.744
14.8043	0.742
14.838	0.738
14.8718	0.737
14.9055	0.737
14.9393	0.737
14.973	0.735
15.0068	0.735
15.0405	0.733
15.0743	0.728
15.108	0.726
15.1418	0.723
15.1755	0.718
15.2093	0.716
15.243	0.711
15.2768	0.709
15.3105	0.703
15.3443	0.694
15.378	0.68
