Infrared Spectrum: Acetamide, N-[2-(9H-purin-6-yl-thio)ethyl]-
Formula: C9 H11 N5 O S
CAS: 98949-69-0
State: SOLID (0.9 mg / 650 mg KBr DISC)
Class: COBLENTZ III
Instrument: PERKIN-ELMER 21 (GRATING)
Instrument parameters: FILTER CHANGE ABOUT 1020 CM^-^1
Sampling: TRANSMISSION
Resolution: 2
Origin: SOUTHERN RESEARCH INSTITUTE
1/CM	TRANSMITTANCE
606	0.6663
615	0.6609
624	0.6579
633	0.6475
642	0.5349
651	0.5108
660	0.7206
669	0.7065
678	0.6705
687	0.7126
696	0.7017
705	0.6856
714	0.6666
723	0.6527
732	0.6488
741	0.631
750	0.6074
759	0.5707
768	0.5743
777	0.6067
786	0.6091
795	0.5575
804	0.6327
813	0.6303
822	0.6104
831	0.5389
840	0.4424
849	0.4355
858	0.5197
867	0.6104
876	0.5807
885	0.5275
894	0.5347
903	0.5965
912	0.6101
921	0.6038
930	0.5178
939	0.4393
948	0.4035
957	0.5718
966	0.6799
975	0.6736
984	0.6516
993	0.6118
1002	0.4882
1011	0.657
1020	0.6354
1029	0.6264
1038	0.6139
1047	0.6367
1056	0.6531
1065	0.6497
1074	0.6446
1083	0.6217
1092	0.5814
1101	0.5475
1110	0.6051
1119	0.5896
1128	0.5351
1137	0.5582
1146	0.5749
1155	0.6023
1164	0.6079
1173	0.5941
1182	0.579
1191	0.5378
1200	0.3983
1209	0.4789
1218	0.3743
1227	0.3919
1236	0.2636
1245	0.3385
1254	0.55
1263	0.5907
1272	0.591
1281	0.531
1290	0.4827
1299	0.3856
1308	0.4309
1317	0.5006
1326	0.3161
1335	0.5113
1344	0.5987
1353	0.5512
1362	0.5009
1371	0.4134
1380	0.3156
1389	0.3229
1398	0.5537
1407	0.5357
1416	0.4664
1425	0.3662
1434	0.3359
1443	0.4461
1452	0.5449
1461	0.5476
1470	0.5197
1479	0.5217
1488	0.5115
1497	0.4914
1506	0.468
1515	0.456
1524	0.424
1533	0.3936
1542	0.3397
1551	0.3002
1560	0.1405
1569	0.1616
1578	0.2417
1587	0.233
1596	0.3056
1605	0.4486
1614	0.4367
1623	0.3295
1632	0.2665
1641	0.2775
1650	0.3817
1659	0.4364
1668	0.5588
1677	0.6071
1686	0.6368
1695	0.6532
1704	0.6507
1713	0.6501
1722	0.6386
1731	0.6319
1740	0.6333
1749	0.6362
1758	0.642
1767	0.6486
1776	0.6529
1785	0.6505
1794	0.6496
1803	0.6452
1812	0.6423
1821	0.6544
1830	0.6617
1839	0.6675
1848	0.6711
1857	0.6626
1866	0.6622
1875	0.6678
1884	0.6733
1893	0.6753
1902	0.6745
1911	0.6737
1920	0.6731
1929	0.672
1938	0.6698
1947	0.6719
1956	0.6711
1965	0.6678
1974	0.6672
1983	0.666
1992	0.6654
2001	0.6692
2010	0.669
2019	0.6663
2028	0.6634
2037	0.6611
2046	0.6584
2055	0.656
2064	0.6567
2073	0.655
2082	0.6548
2091	0.6532
2100	0.6516
2109	0.645
2118	0.6373
2127	0.6368
2136	0.6375
2145	0.6371
2154	0.6353
2163	0.6329
2172	0.6299
2181	0.6268
2190	0.6236
2199	0.6206
2208	0.6178
2217	0.6153
2226	0.6136
2235	0.6107
2244	0.6067
2253	0.6026
2262	0.5992
2271	0.5957
2280	0.5922
2289	0.5886
2298	0.587
2307	0.5735
2316	0.565
2325	0.558
2334	0.5509
2343	0.5451
2352	0.543
2361	0.5409
2370	0.5408
2379	0.5355
2388	0.5239
2397	0.52
2406	0.5159
2415	0.5099
2424	0.5023
2433	0.501
2442	0.4992
2451	0.4943
2460	0.4863
2469	0.4794
2478	0.4743
2487	0.4693
2496	0.4634
2505	0.4574
2514	0.4508
2523	0.4442
2532	0.4379
2541	0.4355
2550	0.4343
2559	0.4355
2568	0.4377
2577	0.4427
2586	0.446
2595	0.4442
2604	0.4404
2613	0.4363
2622	0.4301
2631	0.4212
2640	0.4159
2649	0.415
2658	0.4155
2667	0.4162
2676	0.4184
2685	0.4196
2694	0.4212
2703	0.4234
2712	0.4344
2721	0.4389
2730	0.4379
2739	0.4297
2748	0.4201
2757	0.414
2766	0.4136
2775	0.415
2784	0.4185
2793	0.4234
2802	0.4278
2811	0.4333
2820	0.4546
2829	0.4572
2838	0.4569
2847	0.4567
2856	0.4583
2865	0.4586
2874	0.4611
2883	0.4672
2892	0.4646
2901	0.4557
2910	0.4426
2919	0.4257
2928	0.4051
2937	0.397
2946	0.3982
2955	0.4076
2964	0.4241
2973	0.4369
2982	0.4411
2991	0.4456
3000	0.4531
3009	0.4577
3018	0.4545
3027	0.4465
3036	0.4353
3045	0.4141
3054	0.3779
3063	0.352
3072	0.3409
3081	0.3465
3090	0.3589
3099	0.363
3108	0.3874
3117	0.437
3126	0.487
3135	0.4964
3144	0.4991
3153	0.4985
3162	0.4957
3171	0.4865
3180	0.4758
3189	0.4632
3198	0.4504
3207	0.4279
3216	0.4116
3225	0.3994
3234	0.3954
3243	0.3918
3252	0.3864
3261	0.39
3270	0.4053
3279	0.4351
3288	0.4686
3297	0.4871
3306	0.4973
3315	0.5251
3324	0.5436
3333	0.5513
3342	0.5529
3351	0.5527
3360	0.5503
3369	0.5487
3378	0.5468
3387	0.5453
3396	0.5356
3405	0.5247
3414	0.5199
3423	0.5155
3432	0.5121
3441	0.5134
3450	0.5135
3459	0.5086
3468	0.5107
3477	0.5149
3486	0.5159
3495	0.5166
3504	0.5167
3513	0.5159
3522	0.5231
3531	0.5301
3540	0.5344
3549	0.5369
3558	0.5429
3567	0.5479
3576	0.552
3585	0.5568
3594	0.5681
3603	0.574
3612	0.5776
3621	0.582
3630	0.5885
3639	0.5909
3648	0.597
3657	0.6039
3666	0.6038
3675	0.6018
3684	0.6001
3693	0.5985
3702	0.5985
3711	0.6005
3720	0.602
3729	0.6025
3738	0.6032
3747	0.6033
3756	0.6026
3765	0.6016
3774	0.6006
3783	0.6005
3792	0.6034
3801	0.6059
3810	0.6072
3819	0.6067
3828	0.6034
3837	0.5984
3846	0.5947
3855	0.5927
3864	0.5965
3873	0.5981
3882	0.5992
3891	0.5996
3900	0.5987
3909	0.5966
3918	0.5927
3927	0.5924
3936	0.5931
3945	0.5942
3954	0.5954
3963	0.5953
3972	0.5946
3981	0.5935
3990	0.5923
3999	0.5911
