Infrared Spectrum: PIPERAZINE, 1,4-DIETHYL-2-METHYL-
Formula: C9 H20 N2
CAS: 98952-13-7
State: LIQUID (NEAT)
Boiling point: 187-188 C
Class: COBLENTZ III
Instrument: BAIRD (GRATING)
Instrument parameters: NaCl PRISM
Sampling: TRANSMISSION
Path length: 0.003 CM
Resolution: 2
Origin: WYANDOTTE CHEMICALS CORP.
1/CM	TRANSMITTANCE
4000	0.967
3991	0.9705
3982	0.9739
3973	0.9767
3964	0.9795
3955	0.9817
3946	0.9827
3937	0.9812
3928	0.9791
3919	0.977
3910	0.9745
3901	0.9718
3892	0.9706
3883	0.9727
3874	0.9781
3865	0.9877
3856	0.9933
3847	0.9917
3838	0.9896
3829	0.9873
3820	0.9851
3811	0.9838
3802	0.9825
3793	0.9817
3784	0.9831
3775	0.9857
3766	0.9868
3757	0.9881
3748	0.9894
3739	0.9901
3730	0.99
3721	0.9899
3712	0.9896
3703	0.9885
3694	0.9871
3685	0.9858
3676	0.9844
3667	0.9828
3658	0.9815
3649	0.9801
3640	0.9789
3631	0.9777
3622	0.9767
3613	0.9763
3604	0.9768
3595	0.9778
3586	0.9789
3577	0.9801
3568	0.981
3559	0.981
3550	0.9786
3541	0.9751
3532	0.9715
3523	0.9688
3514	0.9681
3505	0.9678
3496	0.967
3487	0.966
3478	0.965
3469	0.9644
3460	0.9639
3451	0.9635
3442	0.9631
3433	0.9628
3424	0.9625
3415	0.9625
3406	0.9624
3397	0.9621
3388	0.9621
3379	0.9614
3370	0.9605
3361	0.9596
3352	0.9585
3343	0.9573
3334	0.9545
3325	0.9496
3316	0.9445
3307	0.9385
3298	0.9354
3289	0.9328
3280	0.9303
3271	0.9288
3262	0.9271
3253	0.9252
3244	0.9228
3235	0.9205
3226	0.9181
3217	0.9157
3208	0.9133
3199	0.9108
3190	0.9087
3181	0.9077
3172	0.9067
3163	0.9059
3154	0.9057
3145	0.9056
3136	0.9053
3127	0.9018
3118	0.8975
3109	0.8918
3100	0.8856
3091	0.8778
3082	0.8695
3073	0.8589
3064	0.8443
3055	0.8091
3046	0.7526
3037	0.6461
3028	0.5195
3019	0.3922
3010	0.2641
3001	0.1353
2992	0.0153
2983	0
2974	0.0023
2965	0.013
2956	0.0332
2947	0.0477
2938	0.0672
2929	0.0858
2920	0.1086
2911	0.1129
2902	0.1142
2893	0.1282
2884	0.2414
2875	0.3079
2866	0.295
2857	0.2434
2848	0.1917
2839	0.1396
2830	0.0872
2821	0.0366
2812	0.0313
2803	0.0335
2794	0.0371
2785	0.0436
2776	0.0574
2767	0.1146
2758	0.1538
2749	0.1985
2740	0.2318
2731	0.2654
2722	0.2964
2713	0.3437
2704	0.4787
2695	0.6095
2686	0.6375
2677	0.651
2668	0.6678
2659	0.6992
2650	0.7415
2641	0.7697
2632	0.7887
2623	0.8064
2614	0.8221
2605	0.8348
2596	0.843
2587	0.8475
2578	0.8486
2569	0.853
2560	0.8659
2551	0.8799
2542	0.8948
2533	0.9105
2524	0.9244
2515	0.9339
2506	0.9354
2497	0.9399
2488	0.9525
2479	0.9633
2470	0.9633
2461	0.9631
2452	0.9628
2443	0.9628
2434	0.9632
2425	0.9641
2416	0.9656
2407	0.9701
2398	0.9738
2389	0.9761
2380	0.9723
2371	0.965
2362	0.9631
2353	0.9693
2344	0.9757
2335	0.9816
2326	0.9868
2317	0.9907
2308	0.9891
2299	0.9849
2290	0.9805
2281	0.9785
2272	0.9771
2263	0.9765
2254	0.9775
2245	0.9786
2236	0.9797
2227	0.9809
2218	0.9821
2209	0.9834
2200	0.9844
2191	0.9852
2182	0.9859
2173	0.9867
2164	0.988
2155	0.9894
2146	0.9906
2137	0.9908
2128	0.9887
2119	0.9843
2110	0.9865
2101	0.9909
2092	0.9918
2083	0.9888
2074	0.9868
2065	0.9852
2056	0.9843
2047	0.9833
2038	0.9823
2029	0.9823
2020	0.9878
2011	0.9921
2002	0.9907
1993	0.9849
1984	0.9791
1975	0.9785
1966	0.9848
1957	0.9871
1948	0.9777
1939	0.9839
1930	0.9849
1921	0.981
1912	0.9774
1903	0.9799
1894	0.9827
1885	0.9855
1876	0.9878
1867	0.9899
1858	0.99
1849	0.9875
1840	0.9845
1831	0.9843
1822	0.9868
1813	0.9885
1804	0.9888
1795	0.989
1786	0.9884
1777	0.9871
1768	0.9854
1759	0.9821
1750	0.9771
1741	0.9718
1732	0.9662
1723	0.9618
1714	0.9625
1705	0.9485
1696	0.9291
1687	0.9317
1678	0.934
1669	0.9346
1660	0.9384
1651	0.9353
1642	0.9248
1633	0.9257
1624	0.9407
1615	0.9568
1606	0.9585
1597	0.9473
1588	0.9318
1579	0.9339
1570	0.9371
1561	0.9373
1552	0.9238
1543	0.9177
1534	0.8862
1525	0.8298
1516	0.8532
1507	0.8211
1498	0.6062
1489	0.3197
1480	0.2544
1471	0.2426
1462	0.1431
1453	0.3472
1444	0.622
1435	0.6798
1426	0.6331
1417	0.6419
1408	0.5162
1399	0.3836
1390	0.197
1381	0.1386
1372	0.3324
1363	0.3004
1354	0.2222
1345	0.2135
1336	0.2494
1327	0.2762
1318	0.225
1309	0.355
1300	0.3553
1291	0.414
1282	0.4675
1273	0.2792
1264	0.5638
1255	0.7349
1246	0.6958
1237	0.308
1228	0.5993
1219	0.6804
1210	0.7115
1201	0.6815
1192	0.4625
1183	0.0695
1174	0.0362
1165	0.0462
1156	0.2609
1147	0.3394
1138	0.5366
1129	0.4406
1120	0.4649
1111	0.4967
1102	0.4337
1093	0.2361
1084	0.3866
1075	0.5033
1066	0.4739
1057	0.2854
1048	0.4784
1039	0.7684
1030	0.8421
1021	0.8459
1012	0.6771
1003	0.5959
994	0.8075
985	0.7356
976	0.7356
967	0.7414
958	0.8511
949	0.8917
940	0.8359
931	0.61
922	0.8015
913	0.8339
904	0.7401
895	0.8862
886	0.8146
877	0.8504
868	0.909
859	0.8966
850	0.9248
841	0.9203
832	0.8823
823	0.6858
814	0.6325
805	0.6681
796	0.5494
787	0.616
778	0.8018
769	0.838
760	0.795
751	0.5651
742	0.7517
733	0.7643
724	0.8453
715	0.8627
706	0.9147
697	0.9191
688	0.9114
679	0.8983
670	0.8815
661	0.8538
652	0.8045
643	0.7885
634	0.7706
