Infrared Spectrum: ADIPIC ACID, 3-METHOXY-
Formula: C7 H12 O5
CAS: 98962-99-3
State: SOLID (NUJOL)
Class: COBLENTZ
Instrument: Not specified, most likely a prism, grating, or hybrid spectrometer.
Sampling: TRANSMISSION
Resolution: 4
Origin: TENNESSEE EASTMAN COMPANY, RESEARCH LABORATORIES
MICROMETERS	TRANSMITTANCE
2.013	0.981
2.05292	0.981
2.09284	0.983
2.13276	0.983
2.17268	0.986
2.2126	0.985
2.25252	0.971
2.29244	0.961
2.33236	0.961
2.37228	0.966
2.4122	0.968
2.45212	0.973
2.49204	0.976
2.53196	0.981
2.57188	0.981
2.6118	0.981
2.65172	0.985
2.69164	0.986
2.73156	0.986
2.77148	0.983
2.8114	0.981
2.85132	0.975
2.89124	0.966
2.93116	0.945
2.97108	0.9
3.011	0.847
3.05092	0.792
3.09084	0.727
3.13076	0.649
3.17068	0.576
3.2106	0.503
3.25052	0.441
3.29044	0.387
3.33036	0.284
3.37028	0.068
3.4102	0.039
3.45012	0.121
3.49004	0.119
3.52996	0.41
3.56988	0.496
3.6098	0.526
3.64972	0.523
3.68964	0.523
3.72956	0.526
3.76948	0.503
3.8094	0.506
3.84932	0.531
3.88924	0.546
3.92916	0.558
3.96908	0.601
4.009	0.657
4.04892	0.699
4.08884	0.74
4.12876	0.769
4.16868	0.789
4.2086	0.813
4.24852	0.84
4.28844	0.842
4.32836	0.842
4.36828	0.862
4.4082	0.868
4.44812	0.882
4.48804	0.897
4.52796	0.9
4.56788	0.913
4.6078	0.918
4.64772	0.92
4.68764	0.92
4.72756	0.923
4.76748	0.928
4.8074	0.931
4.84732	0.933
4.88724	0.933
4.92716	0.933
4.96708	0.935
5.007	0.94
5.04692	0.94
5.08684	0.935
5.12676	0.923
5.16668	0.918
5.2066	0.918
5.24652	0.913
5.28644	0.9
5.32636	0.89
5.36628	0.88
5.4062	0.87
5.44612	0.852
5.48604	0.832
5.52596	0.817
5.56588	0.8
5.6058	0.785
5.64572	0.75
5.68564	0.697
5.72556	0.564
5.76548	0.388
5.8054	0.166
5.84532	0.061
5.88524	0.054
5.92516	0.129
5.96508	0.387
6.005	0.564
6.04492	0.671
6.08484	0.747
6.12476	0.8
6.16468	0.842
6.2046	0.867
6.24452	0.9
6.28444	0.92
6.32436	0.93
6.36428	0.931
6.4042	0.936
6.44412	0.94
6.48404	0.936
6.52396	0.933
6.56388	0.925
6.6038	0.916
6.64372	0.898
6.68364	0.862
6.72356	0.785
6.76348	0.584
6.8034	0.411
6.84332	0.372
6.88324	0.358
6.92316	0.365
6.96308	0.411
7.003	0.456
7.04292	0.456
7.08284	0.466
7.12276	0.558
7.16268	0.677
7.2026	0.647
7.24252	0.526
7.28244	0.518
7.32236	0.576
7.36228	0.579
7.4022	0.598
7.44212	0.684
7.48204	0.689
7.52196	0.649
7.56188	0.576
7.6018	0.445
7.64172	0.38
7.68164	0.382
7.72156	0.378
7.76148	0.335
7.8014	0.274
7.84132	0.37
7.88124	0.506
7.92116	0.599
7.96108	0.636
8.001	0.676
8.04092	0.674
8.08084	0.696
8.12076	0.71
8.16068	0.657
8.2006	0.528
8.24052	0.485
8.28044	0.524
8.32036	0.548
8.36028	0.624
8.4002	0.674
8.44012	0.646
8.48004	0.614
8.51996	0.619
8.55988	0.574
8.5998	0.647
8.63972	0.714
8.67964	0.749
8.71956	0.772
8.75948	0.782
8.7994	0.767
8.83932	0.666
8.87924	0.466
8.91916	0.392
8.95908	0.485
8.999	0.609
9.03892	0.696
9.07884	0.76
9.11876	0.784
9.15868	0.772
9.1986	0.725
9.23852	0.727
9.27844	0.747
9.31836	0.7
9.35828	0.589
9.3982	0.636
9.43812	0.729
9.47804	0.762
9.51796	0.725
9.55788	0.667
9.5978	0.715
9.63772	0.75
9.67764	0.787
9.71756	0.812
9.75748	0.83
9.7974	0.85
9.83732	0.857
9.87724	0.857
9.91716	0.857
9.95708	0.857
9.997	0.855
10.0369	0.852
10.0768	0.85
10.1168	0.847
10.1567	0.82
10.1966	0.807
10.2365	0.797
10.2764	0.779
10.3164	0.765
10.3563	0.74
10.3962	0.717
10.4361	0.691
10.476	0.649
10.516	0.619
10.5559	0.578
10.5958	0.523
10.6357	0.49
10.6756	0.435
10.7156	0.425
10.7555	0.495
10.7954	0.528
10.8353	0.534
10.8752	0.558
10.9152	0.588
10.9551	0.612
10.995	0.637
11.0349	0.657
11.0748	0.679
11.1148	0.689
11.1547	0.692
11.1946	0.717
11.2345	0.747
11.2744	0.777
11.3144	0.797
11.3543	0.807
11.3942	0.818
11.4341	0.83
11.474	0.85
11.514	0.855
11.5539	0.86
11.5938	0.86
11.6337	0.862
11.6736	0.863
11.7136	0.865
11.7535	0.867
11.7934	0.865
11.8333	0.865
11.8732	0.865
11.9132	0.853
11.9531	0.78
11.993	0.712
12.0329	0.722
12.0728	0.805
12.1128	0.85
12.1527	0.867
12.1926	0.872
12.2325	0.878
12.2724	0.885
12.3124	0.887
12.3523	0.888
12.3922	0.89
12.4321	0.867
12.472	0.862
12.512	0.875
12.5519	0.9
12.5918	0.911
12.6317	0.915
12.6716	0.918
12.7116	0.918
12.7515	0.918
12.7914	0.918
12.8313	0.918
12.8712	0.918
12.9112	0.918
12.9511	0.918
12.991	0.918
13.0309	0.918
13.0708	0.918
13.1108	0.918
13.1507	0.916
13.1906	0.918
13.2305	0.916
13.2704	0.916
13.3104	0.916
13.3503	0.916
13.3902	0.911
13.4301	0.901
13.47	0.893
13.51	0.887
13.5499	0.865
13.5898	0.86
13.6297	0.857
13.6696	0.853
13.7096	0.848
13.7495	0.832
13.7894	0.815
13.8293	0.807
13.8692	0.803
13.9092	0.8
13.9491	0.8
13.989	0.8
14.0289	0.8
14.0688	0.8
14.1088	0.803
14.1487	0.807
14.1886	0.81
14.2285	0.813
14.2684	0.812
14.3084	0.813
14.3483	0.813
14.3882	0.815
14.4281	0.813
14.468	0.813
14.508	0.813
14.5479	0.81
14.5878	0.807
14.6277	0.803
14.6676	0.8
14.7076	0.797
14.7475	0.79
14.7874	0.787
14.8273	0.78
14.8672	0.777
14.9072	0.777
14.9471	0.777
14.987	0.775
15.0269	0.769
15.0668	0.76
15.1068	0.757
15.1467	0.752
15.1866	0.75
15.2265	0.747
15.2664	0.742
15.3064	0.737
15.3463	0.735
15.3862	0.729
15.4261	0.724
15.466	0.715
15.506	0.702
15.5459	0.696
15.5858	0.686
15.6257	0.679
15.6656	0.671
15.7056	0.671
15.7455	0.671
15.7854	0.671
15.8253	0.671
15.8652	0.671
15.9052	0.671
15.9451	0.671
15.985	0.671
