Infrared Spectrum: 3-Nitroaniline
Formula: C 6 H 6 N 2 O 2
CAS: 99-09-2
State: gas
Instrument: HP-GC/MS/IRD
Origin: NIST Mass Spectrometry Data Center
1/CM	ABSORBANCE
550	0.00112
562	0.0005516
574	0.00049
586	0.0004704
598	0.0004172
610	0.0004592
622	0.000644
634	0.0010388
646	0.0023912
658	0.004102
670	0.0061012
682	0.00588
694	0.0039004
706	0.0029708
718	0.0037996
730	0.0060284
742	0.0040516
754	0.0020356
766	0.0016828
778	0.0024528
790	0.0035252
802	0.0047236
814	0.0062916
826	0.0027664
838	0.0007448
850	0.001036
862	0.0018228
874	0.0018676
886	0.0012572
898	0.0006608
910	0.0004536
922	0.0005236
934	0.0004172
946	0.0002968
958	0.0002408
970	0.000238
982	0.0002716
994	0.000448
1006	0.0003164
1018	7.56e-05
1030	6.16e-05
1042	0.000126
1054	0.000378
1066	0.0005656
1078	0.0006692
1090	0.0009912
1102	0.0012908
1114	0.001148
1126	0.0006776
1138	0.0004004
1150	0.0001568
1162	0.0001092
1174	5.6e-06
1186	5.6e-06
1198	5.32e-05
1210	8.68e-05
1222	0.000154
1234	0.0003332
1246	0.001092
1258	0.0032004
1270	0.0037772
1282	0.0024304
1294	0.0029792
1306	0.0052108
1318	0.006062
1330	0.0050064
1342	0.008008
1354	0.0172956
1366	0.0146468
1378	0.003248
1390	0.0009968
1402	0.000672
1414	0.000518
1426	0.0004816
1438	0.0006104
1450	0.0009828
1462	0.0017108
1474	0.0029596
1486	0.0043988
1498	0.0039396
1510	0.0036764
1522	0.0087052
1534	0.022582
1546	0.0278236
1558	0.0176568
1570	0.0099932
1582	0.0074256
1594	0.0048916
1606	0.0038948
1618	0.0070196
1630	0.010808
1642	0.0074704
1654	0.0024584
1666	0.0013804
1678	0.0011676
1690	0.0009212
1702	0.0005796
1714	0.0004032
1726	0.0003976
1738	0.0004088
1750	0.0003752
1762	0.0003248
1774	0.0002044
1786	0.0001232
1798	9.52e-05
1810	0.0001148
1822	0.0001092
1834	0.0001736
1846	0.0002408
1858	0.0002016
1870	0.0001204
1882	6.16e-05
1894	8.12e-05
1906	0.00014
1918	0.0002856
1930	0.0003304
1942	0.0002128
1954	0.0001316
1966	8.96e-05
1978	9.8e-05
1990	0.000112
2002	0.0001092
2014	0.0001148
2026	0.0001092
2038	0.0001008
2050	0.0001092
2062	0.0001092
2074	0.0001036
2086	7.56e-05
2098	7e-05
2110	7.56e-05
2122	6.44e-05
2134	7.28e-05
2146	8.96e-05
2158	9.52e-05
2170	9.24e-05
2182	8.68e-05
2194	6.72e-05
2206	6.16e-05
2218	4.48e-05
2230	4.2e-05
2242	5.88e-05
2254	6.16e-05
2266	7.56e-05
2278	9.24e-05
2290	0.0001092
2302	9.24e-05
2314	7e-05
2326	9.8e-05
2338	0.000112
2350	0.0001232
2362	0.0001344
2374	0.00014
2386	0.0001176
2398	0.0001316
2410	0.0001288
2422	0.000112
2434	0.0001092
2446	0.000112
2458	0.000112
2470	7.84e-05
2482	7e-05
2494	6.16e-05
2506	6.16e-05
2518	5.6e-05
2530	7.56e-05
2542	8.12e-05
2554	0.0001064
2566	0.0001428
2578	0.0001036
2590	0.0001064
2602	0.0001316
2614	0.0001708
2626	0.0002156
2638	0.0002044
2650	0.0001792
2662	0.000168
2674	0.0001708
2686	0.0001736
2698	0.0001792
2710	0.0001512
2722	0.0001428
2734	0.0001204
2746	0.0001092
2758	9.24e-05
2770	7.28e-05
2782	9.24e-05
2794	8.96e-05
2806	0.0001232
2818	0.000126
2830	0.000154
2842	0.0002324
2854	0.0002464
2866	0.0002716
2878	0.0003584
2890	0.0004284
2902	0.0003836
2914	0.0003164
2926	0.0002576
2938	0.000252
2950	0.0001904
2962	0.000168
2974	0.0001624
2986	0.000168
2998	0.00021
3010	0.0002912
3022	0.0005488
3034	0.0009996
3046	0.001022
3058	0.0008708
3070	0.0013552
3082	0.0012432
3094	0.0006216
3106	0.0004536
3118	0.0002324
3130	0.0001344
3142	8.4e-05
3154	7e-05
3166	8.96e-05
3178	9.52e-05
3190	0.0001456
3202	0.000196
3214	0.0002772
3226	0.0003024
3238	0.0002212
3250	0.0001484
3262	0.0001344
3274	0.0001232
3286	8.68e-05
3298	7.28e-05
3310	7.56e-05
3322	9.8e-05
3334	7.56e-05
3346	7.28e-05
3358	0.0001176
3370	0.0001792
3382	0.0003108
3394	0.0006356
3406	0.0013048
3418	0.0018424
3430	0.0018256
3442	0.0010416
3454	0.0004172
3466	0.0003192
3478	0.0005096
3490	0.0008456
3502	0.0010808
3514	0.0010836
3526	0.0008904
3538	0.0004256
3550	0.0001764
3562	0.0001064
3574	7.84e-05
3586	0.000112
3598	0.0001008
3610	0.0001092
3622	0.0001232
3634	9.24e-05
3646	0.0001036
3658	0.0001176
3670	9.8e-05
3682	0.0001232
3694	7.84e-05
3706	0.0001036
3718	0.0001316
3730	0.0001288
3742	0.00014
3754	0.0001232
3766	0.0001288
3778	0.0001512
3790	0.0001288
3802	0.0001568
3814	0.0001092
3826	0.000126
3838	0.0002016
