Infrared Spectrum: m-AMINOBENZOIC ACID
Formula: C7 H7 N O2
CAS: 99-05-8
State: SOLID (SPLIT MULL)
Melting point: 172 C
Class: COBLENTZ III
Instrument: DOW KBr FOREPRISM-GRATING
Instrument parameters: GRATING BLAZED AT 3.5, 12.0, 20.0 MICRONS AND CHANGED AT 5.0, 7.5, 14.9 MICRONS
Sampling: TRANSMISSION
Resolution: 4
Origin: DOW CHEMICAL COMPANY
1/CM	TRANSMITTANCE
382.427	0.777
391.213	0.756
400	0.73
408.786	0.709
417.572	0.683
426.359	0.669
435.145	0.627
443.932	0.58
452.718	0.587
461.504	0.639
470.291	0.698
479.077	0.734
487.863	0.745
496.65	0.715
505.436	0.596
514.223	0.607
523.009	0.558
531.795	0.627
540.582	0.771
549.368	0.738
558.154	0.795
566.941	0.834
575.727	0.853
584.514	0.867
593.3	0.874
602.086	0.875
610.873	0.883
619.659	0.883
628.445	0.89
637.232	0.897
646.018	0.907
654.805	0.908
663.591	0.836
672.377	0.639
681.164	0.756
689.95	0.892
698.736	0.907
707.523	0.907
716.309	0.893
725.095	0.864
733.882	0.889
742.668	0.882
751.455	0.771
760.241	0.199
769.027	0.629
777.814	0.834
786.6	0.744
795.386	0.611
804.173	0.933
812.959	0.947
821.746	0.926
830.532	0.934
839.318	0.958
848.105	0.969
856.891	0.959
865.677	0.959
874.464	0.959
883.25	0.955
892.037	0.933
900.823	0.915
909.609	0.94
918.396	0.886
927.182	0.933
935.968	0.939
944.755	0.939
953.541	0.932
962.328	0.923
971.114	0.915
979.9	0.907
988.687	0.899
997.473	0.89
1006.26	0.874
1015.05	0.882
1023.83	0.875
1032.62	0.871
1041.4	0.865
1050.19	0.857
1058.98	0.845
1067.76	0.796
1076.55	0.793
1085.34	0.798
1094.12	0.785
1102.91	0.796
1111.7	0.786
1120.48	0.795
1129.27	0.796
1138.05	0.775
1146.84	0.762
1155.63	0.753
1164.41	0.753
1173.2	0.774
1181.99	0.795
1190.77	0.795
1199.56	0.789
1208.35	0.781
1217.13	0.757
1225.92	0.742
1234.71	0.775
1243.49	0.764
1252.28	0.746
1261.06	0.728
1269.85	0.717
1278.64	0.706
1287.42	0.683
1296.21	0.641
1305	0.673
1313.78	0.632
1322.57	0.612
1331.36	0.546
1340.14	0.484
1348.93	0.416
1357.71	0.349
1366.5	0.258
1375.29	0.113
1384.07	0.055
1392.86	0.053
1401.65	0.181
1410.43	0.398
1419.22	0.686
1428.01	0.731
1436.79	0.721
1445.58	0.578
1454.36	0.459
1463.15	0.621
1471.94	0.679
1480.72	0.639
1489.51	0.59
1498.3	0.55
1507.08	0.499
1515.87	0.445
1524.66	0.395
1533.44	0.403
1542.23	0.403
1551.01	0.358
1559.8	0.275
1568.59	0.236
1577.37	0.269
1586.16	0.327
1594.95	0.435
1603.73	0.623
1612.52	0.627
1621.31	0.41
1630.09	0.222
1638.88	0.203
1647.66	0.327
1656.45	0.521
1665.24	0.692
1674.02	0.775
1682.81	0.853
1691.6	0.893
1700.38	0.915
1709.17	0.932
1717.96	0.937
1726.74	0.943
1735.53	0.937
1744.31	0.934
1753.1	0.926
1761.89	0.922
1770.67	0.917
1779.46	0.914
1788.25	0.908
1797.03	0.9
1805.82	0.89
1814.61	0.886
1823.39	0.881
1832.18	0.878
1840.96	0.874
1849.75	0.869
1858.54	0.867
1867.32	0.861
1876.11	0.858
1884.9	0.852
1893.68	0.843
1902.47	0.836
1911.26	0.831
1920.04	0.824
1928.83	0.821
1937.61	0.82
1946.4	0.816
1955.19	0.81
1963.97	0.802
1972.76	0.791
1981.55	0.78
1990.33	0.777
1999.12	0.766
2007.91	0.762
2016.69	0.76
2025.48	0.761
2034.26	0.7595
2043.05	0.759
2051.84	0.758
2060.62	0.756
2069.41	0.756
2078.2	0.7595
2086.98	0.7609
2095.77	0.763
2104.56	0.7635
2113.34	0.7635
2122.13	0.7611
2130.91	0.756
2139.7	0.753
2148.49	0.7501
2157.27	0.7431
2166.06	0.735
2174.85	0.7306
2183.63	0.726
2192.42	0.7206
2201.21	0.7156
2209.99	0.7096
2218.78	0.706
2227.56	0.701
2236.35	0.695
2245.14	0.6876
2253.92	0.6796
2262.71	0.6718
2271.5	0.6642
2280.28	0.6568
2289.07	0.6476
2297.86	0.641
2306.64	0.6336
2315.43	0.63
2324.22	0.626
2333	0.622
2341.79	0.6172
2350.57	0.6102
2359.36	0.604
2368.15	0.6
2376.93	0.596
2385.72	0.5923
2394.51	0.589
2403.29	0.5856
2412.08	0.582
2420.87	0.5786
2429.65	0.5756
2438.44	0.5726
2447.22	0.569
2456.01	0.5676
2464.8	0.5646
2473.58	0.562
2482.37	0.56
2491.16	0.557
2499.94	0.556
2508.73	0.556
2517.52	0.5563
2526.3	0.5587
2535.09	0.561
2543.87	0.561
2552.66	0.561
2561.45	0.564
2570.23	0.562
2579.02	0.5626
2587.81	0.564
2596.59	0.564
2605.38	0.5634
2614.17	0.5617
2622.95	0.56
2631.74	0.558
2640.52	0.557
2649.31	0.557
2658.1	0.556
2666.88	0.557
2675.67	0.56
2684.46	0.561
2693.24	0.56
2702.03	0.5577
2710.82	0.553
2719.6	0.5497
2728.39	0.546
2737.17	0.543
2745.96	0.5415
2754.75	0.5387
2763.53	0.536
2772.32	0.536
2781.11	0.535
2789.89	0.535
2798.68	0.5352
2807.47	0.5358
2816.25	0.533
2825.04	0.5318
2833.82	0.528
2842.61	0.525
2851.4	0.5218
2860.18	0.5178
2868.97	0.514
2877.76	0.5108
2886.54	0.507
2895.33	0.5038
2904.12	0.4998
2912.9	0.496
2921.69	0.493
2930.47	0.4918
2939.26	0.491
2948.05	0.491
2956.83	0.492
2965.62	0.495
2974.41	0.4974
2983.19	0.5044
2991.98	0.5114
3000.77	0.5202
3009.55	0.5295
3018.34	0.5382
3027.12	0.543
3035.91	0.547
3044.7	0.549
3053.48	0.55
3062.27	0.55
3071.06	0.5502
3079.84	0.5615
3088.63	0.573
3097.42	0.5803
3106.2	0.5873
3114.99	0.5961
3123.77	0.6044
3132.56	0.6151
3141.35	0.6277
3150.13	0.6435
3158.92	0.6595
3167.71	0.6774
3176.49	0.6924
3185.28	0.7153
3194.07	0.7304
3202.85	0.7485
3211.64	0.7576
3220.42	0.7745
3229.21	0.7911
3238	0.8042
3246.78	0.82
3255.57	0.8313
3264.36	0.8403
3273.14	0.8472
3281.93	0.8502
3290.72	0.8542
3299.5	0.8571
3308.29	0.86
3317.08	0.86
3325.86	0.858
3334.65	0.857
3343.43	0.856
3352.22	0.8539
3361.01	0.852
3369.79	0.85
3378.58	0.8501
3387.37	0.8519
3396.15	0.849
3404.94	0.847
3413.73	0.8459
3422.51	0.843
3431.3	0.8419
3440.08	0.839
3448.87	0.836
3457.66	0.834
3466.44	0.831
3475.23	0.828
3484.02	0.8269
3492.8	0.825
3501.59	0.822
3510.38	0.821
3519.16	0.82
3527.95	0.818
3536.73	0.817
3545.52	0.816
3554.31	0.813
3563.09	0.811
3571.88	0.81
3580.67	0.809
3589.45	0.807
3598.24	0.806
3607.03	0.806
3615.81	0.804
3624.6	0.802
3633.38	0.8
3642.17	0.799
3650.96	0.798
3659.74	0.796
3668.53	0.795
3677.32	0.793
3686.1	0.792
3694.89	0.7891
3703.68	0.788
3712.46	0.785
3721.25	0.784
3730.03	0.781
3738.82	0.7781
3747.61	0.777
3756.39	0.775
3765.18	0.774
3773.97	0.7711
3782.75	0.7701
3791.54	0.769
3800.33	0.767
