Infrared Spectrum: Isonicotinic acid, 2,6-dihydroxy-,
Formula: C6 H5 N O4
CAS: 99-11-6
State: SOLID (0.8 mg / 650 mg KBr DISC)
Class: COBLENTZ III
Instrument: PERKIN-ELMER 21 (GRATING)
Instrument parameters: FILTER CHANGE ABOUT 1020 CM^-^1
Resolution: 2
Origin: SOUTHERN RESEARCH INSTITUTE
1/CM	TRANSMITTANCE
600	0.7176
609.008	0.7194
618.016	0.7227
627.025	0.7295
636.033	0.7425
645.041	0.7454
654.049	0.7426
663.057	0.7295
672.065	0.7378
681.074	0.7278
690.082	0.7161
699.09	0.6989
708.098	0.6732
717.106	0.5612
726.114	0.373
735.123	0.1759
744.131	0.6151
753.139	0.6706
762.147	0.5174
771.155	0.2816
780.164	0.654
789.172	0.6549
798.18	0.6386
807.188	0.6231
816.196	0.6
825.204	0.5697
834.213	0.5287
843.221	0.5291
852.229	0.4789
861.237	0.2882
870.245	0.3293
879.253	0.3117
888.262	0.304
897.27	0.3265
906.278	0.3344
915.286	0.3331
924.294	0.3216
933.303	0.2573
942.311	0.2054
951.319	0.1965
960.327	0.2331
969.335	0.3079
978.343	0.3597
987.352	0.2698
996.36	0.1909
1005.37	0.506
1014.38	0.5468
1023.38	0.5784
1032.39	0.5738
1041.4	0.5708
1050.41	0.5552
1059.42	0.4888
1068.43	0.5265
1077.43	0.5258
1086.44	0.514
1095.45	0.4998
1104.46	0.4625
1113.47	0.4677
1122.47	0.4562
1131.48	0.4385
1140.49	0.4235
1149.5	0.3912
1158.51	0.3398
1167.52	0.2739
1176.52	0.2172
1185.53	0.1448
1194.54	0.0482
1203.55	0.0183
1212.56	0.0198
1221.56	0.0503
1230.57	0.2082
1239.58	0.1474
1248.59	0.0309
1257.6	0.0647
1266.61	0.2064
1275.61	0.0229
1284.62	0.0163
1293.63	0.0145
1302.64	0.0138
1311.65	0.0146
1320.65	0.017
1329.66	0.029
1338.67	0.1026
1347.68	0.1757
1356.69	0.3463
1365.7	0.4555
1374.7	0.4459
1383.71	0.3704
1392.72	0.3599
1401.73	0.2348
1410.74	0.1246
1419.74	0.1231
1428.75	0.1674
1437.76	0.1862
1446.77	0.1532
1455.78	0.0903
1464.78	0.0417
1473.79	0.0478
1482.8	0.0413
1491.81	0.05
1500.82	0.0882
1509.83	0.0878
1518.83	0.073
1527.84	0.0651
1536.85	0.0814
1545.86	0.1069
1554.87	0.1498
1563.87	0.1507
1572.88	0.1227
1581.89	0.0931
1590.9	0.0361
1599.91	0.0248
1608.92	0.0228
1617.92	0.0447
1626.93	0.0769
1635.94	0.0939
1644.95	0.1077
1653.96	0.1498
1662.96	0.1615
1671.97	0.1424
1680.98	0.0581
1689.99	0.0698
1699	0.0978
1708.01	0.1324
1717.01	0.2613
1726.02	0.3178
1735.03	0.3883
1744.04	0.4244
1753.05	0.4342
1762.05	0.4384
1771.06	0.4389
1780.07	0.436
1789.08	0.4282
1798.09	0.425
1807.1	0.4246
1816.1	0.4288
1825.11	0.4377
1834.12	0.4486
1843.13	0.4574
1852.14	0.4653
1861.14	0.4726
1870.15	0.4798
1879.16	0.4857
1888.17	0.4905
1897.18	0.4989
1906.19	0.5111
1915.19	0.5142
1924.2	0.515
1933.21	0.5131
1942.22	0.515
1951.23	0.5221
1960.23	0.5287
1969.24	0.532
1978.25	0.5327
1987.26	0.5304
1996.27	0.5267
2005.28	0.517
2014.28	0.5137
2023.29	0.5228
2032.3	0.522
2041.31	0.5172
2050.32	0.5037
2059.32	0.4863
2068.33	0.4788
2077.34	0.4722
2086.35	0.4646
2095.36	0.4536
2104.37	0.439
2113.37	0.4168
2122.38	0.3983
2131.39	0.3831
2140.4	0.37
2149.41	0.3529
2158.41	0.348
2167.42	0.3422
2176.43	0.3356
2185.44	0.329
2194.45	0.3224
2203.46	0.3194
2212.46	0.3166
2221.47	0.313
2230.48	0.3064
2239.49	0.3013
2248.5	0.3005
2257.5	0.2943
2266.51	0.2879
2275.52	0.2864
2284.53	0.2841
2293.54	0.2784
2302.55	0.2683
2311.55	0.2487
2320.56	0.2351
2329.57	0.232
2338.58	0.2322
2347.59	0.233
2356.59	0.2356
2365.6	0.2381
2374.61	0.2371
2383.62	0.2338
2392.63	0.2256
2401.64	0.2187
2410.64	0.2159
2419.65	0.2128
2428.66	0.2077
2437.67	0.2025
2446.68	0.1988
2455.68	0.196
2464.69	0.1938
2473.7	0.1916
2482.71	0.1899
2491.72	0.1881
2500.73	0.1872
2509.73	0.187
2518.74	0.1958
2527.75	0.2013
2536.76	0.2031
2545.77	0.2047
2554.77	0.2079
2563.78	0.2122
2572.79	0.215
2581.8	0.2164
2590.81	0.2172
2599.82	0.2182
2608.82	0.2191
2617.83	0.2198
2626.84	0.222
2635.85	0.226
2644.86	0.2278
2653.86	0.2276
2662.87	0.2279
2671.88	0.2281
2680.89	0.2283
2689.9	0.2321
2698.91	0.2272
2707.91	0.2212
2716.92	0.217
2725.93	0.2155
2734.94	0.2055
2743.95	0.1956
2752.95	0.1919
2761.96	0.1843
2770.97	0.1709
2779.98	0.1646
2788.99	0.1585
2798	0.1526
2807	0.1505
2816.01	0.1495
2825.02	0.1502
2834.03	0.1461
2843.04	0.1392
2852.04	0.1377
2861.05	0.136
2870.06	0.1301
2879.07	0.1292
2888.08	0.1295
2897.09	0.1305
2906.09	0.1321
2915.1	0.1341
2924.11	0.1386
2933.12	0.143
2942.13	0.1448
2951.13	0.1514
2960.14	0.1559
2969.15	0.158
2978.16	0.1598
2987.17	0.161
2996.18	0.1623
3005.18	0.1635
3014.19	0.168
3023.2	0.1765
3032.21	0.1792
3041.22	0.1782
3050.22	0.187
3059.23	0.1888
3068.24	0.1986
3077.25	0.2071
3086.26	0.215
3095.26	0.2249
3104.27	0.2289
3113.28	0.2427
3122.29	0.2464
3131.3	0.2852
3140.31	0.3049
3149.31	0.3198
3158.32	0.3335
3167.33	0.3569
3176.34	0.3917
3185.35	0.4165
3194.35	0.4338
3203.36	0.445
3212.37	0.4554
3221.38	0.4698
3230.39	0.4899
3239.4	0.5072
3248.4	0.5225
3257.41	0.5292
3266.42	0.5423
3275.43	0.5574
3284.44	0.5702
3293.44	0.5774
3302.45	0.5845
3311.46	0.5938
3320.47	0.6017
3329.48	0.606
3338.49	0.6096
3347.49	0.61
3356.5	0.609
3365.51	0.6061
3374.52	0.5995
3383.53	0.5981
3392.53	0.5975
3401.54	0.5971
3410.55	0.5967
3419.56	0.5966
3428.57	0.6005
3437.58	0.6027
3446.58	0.6034
3455.59	0.6053
3464.6	0.6091
3473.61	0.6146
3482.62	0.6233
3491.62	0.6302
3500.63	0.636
3509.64	0.6415
3518.65	0.6482
3527.66	0.6602
3536.67	0.6669
3545.67	0.6712
3554.68	0.6788
3563.69	0.6865
3572.7	0.6917
3581.71	0.7004
3590.71	0.7101
3599.72	0.7187
3608.73	0.7265
3617.74	0.7311
3626.75	0.7405
3635.76	0.7503
3644.76	0.7626
3653.77	0.7734
3662.78	0.7718
3671.79	0.7765
3680.8	0.7803
3689.8	0.7834
3698.81	0.7854
3707.82	0.7897
3716.83	0.7898
3725.84	0.792
3734.85	0.7972
3743.85	0.7995
3752.86	0.8008
3761.87	0.8016
3770.88	0.8025
3779.89	0.8035
3788.89	0.8043
3797.9	0.8051
3806.91	0.8065
3815.92	0.8083
3824.93	0.8103
3833.94	0.803
3842.94	0.8006
3851.95	0.8022
3860.96	0.8058
3869.97	0.8046
3878.98	0.8036
3887.98	0.8033
3896.99	0.8029
