Infrared Spectrum: 1,2,3-PROPANE TRICARBOXYLIC ACID
Formula: C6 H8 O6
CAS: 99-14-9
State: SOLID (MINERAL OIL MULL)
Melting point: 160-162 C
Class: COBLENTZ
Instrument: Not specified, most likely a prism, grating, or hybrid spectrometer.
Sampling: TRANSMISSION
Resolution: 4
Origin: WYANDOTTE CHEMICALS CORP., WYANDOTTE, MICHIGAN, USA
MICROMETERS	TRANSMITTANCE
2	0.962
2.04099	0.96
2.08198	0.96
2.12296	0.962
2.16395	0.96
2.20494	0.941
2.24593	0.919
2.28692	0.921
2.32791	0.926
2.36889	0.924
2.40988	0.933
2.45087	0.933
2.49186	0.933
2.53285	0.933
2.57383	0.936
2.61482	0.943
2.65581	0.943
2.6968	0.941
2.73779	0.935
2.77878	0.929
2.81976	0.914
2.86075	0.883
2.90174	0.847
2.94273	0.777
2.98372	0.676
3.0247	0.564
3.06569	0.34
3.10668	0.148
3.14767	0.095
3.18866	0.066
3.22964	0.044
3.27063	0.041
3.31162	0.041
3.35261	0.029
3.3936	0.022
3.43459	0.011
3.47557	0.01
3.51656	0.03
3.55755	0.083
3.59854	0.094
3.63953	0.094
3.68051	0.116
3.7215	0.133
3.76249	0.111
3.80348	0.124
3.84447	0.15
3.88546	0.167
3.92644	0.16
3.96743	0.188
4.00842	0.282
4.04941	0.35
4.0904	0.394
4.13138	0.413
4.17237	0.466
4.21336	0.516
4.25435	0.553
4.29534	0.589
4.33633	0.611
4.37731	0.635
4.4183	0.675
4.45929	0.7
4.50028	0.719
4.54127	0.74
4.58225	0.748
4.62324	0.758
4.66423	0.779
4.70522	0.801
4.74621	0.813
4.78719	0.822
4.82818	0.817
4.86917	0.813
4.91016	0.813
4.95115	0.825
4.99214	0.837
5.03312	0.839
5.07411	0.839
5.1151	0.835
5.15609	0.832
5.19708	0.823
5.23806	0.811
5.27905	0.789
5.32004	0.769
5.36103	0.738
5.40202	0.709
5.44301	0.685
5.48399	0.663
5.52498	0.63
5.56597	0.596
5.60696	0.535
5.64795	0.379
5.68893	0.278
5.72992	0.117
5.77091	0.022
5.8119	0.022
5.85289	0.022
5.89388	0.022
5.93486	0.039
5.97585	0.1
6.01684	0.217
6.05783	0.305
6.09882	0.415
6.1398	0.494
6.18079	0.541
6.22178	0.601
6.26277	0.632
6.30376	0.654
6.34475	0.671
6.38573	0.682
6.42672	0.702
6.46771	0.695
6.5087	0.714
6.54969	0.712
6.59067	0.704
6.63166	0.658
6.67265	0.63
6.71364	0.584
6.75463	0.449
6.79561	0.258
6.8366	0.117
6.87759	0.063
6.91858	0.023
6.95957	0.032
7.00056	0.085
7.04154	0.097
7.08253	0.201
7.12352	0.222
7.16451	0.429
7.2055	0.509
7.24648	0.384
7.28747	0.403
7.32846	0.384
7.36945	0.413
7.41044	0.417
7.45143	0.29
7.49241	0.4
7.5334	0.622
7.57439	0.661
7.61538	0.558
7.65637	0.34
7.69735	0.116
7.73834	0.058
7.77933	0.135
7.82032	0.232
7.86131	0.181
7.9023	0.109
7.94328	0.039
7.98427	0.029
8.02526	0.03
8.06625	0.032
8.10724	0.063
8.14822	0.078
8.18921	0.227
8.2302	0.314
8.27119	0.331
8.31218	0.384
8.35316	0.488
8.39415	0.463
8.43514	0.347
8.47613	0.521
8.51712	0.601
8.55811	0.663
8.59909	0.712
8.64008	0.748
8.68107	0.774
8.72206	0.8
8.76305	0.82
8.80403	0.834
8.84502	0.825
8.88601	0.793
8.927	0.774
8.96799	0.798
9.00898	0.846
9.04996	0.864
9.09095	0.863
9.13194	0.856
9.17293	0.852
9.21392	0.851
9.2549	0.847
9.29589	0.841
9.33688	0.83
9.37787	0.805
9.41886	0.661
9.45985	0.413
9.50083	0.605
9.54182	0.731
9.58281	0.753
9.6238	0.753
9.66479	0.75
9.70577	0.743
9.74676	0.736
9.78775	0.726
9.82874	0.716
9.86973	0.702
9.91071	0.683
9.9517	0.663
9.99269	0.635
10.0337	0.603
10.0747	0.574
10.1157	0.511
10.1566	0.323
10.1976	0.215
10.2386	0.365
10.2796	0.415
10.3206	0.42
10.3616	0.394
10.4026	0.37
10.4436	0.341
10.4845	0.312
10.5255	0.28
10.5665	0.242
10.6075	0.215
10.6485	0.179
10.6895	0.128
10.7305	0.078
10.7715	0.063
10.8125	0.083
10.8534	0.064
10.8944	0.044
10.9354	0.035
10.9764	0.032
11.0174	0.03
11.0584	0.029
11.0994	0.03
11.1404	0.034
11.1813	0.044
11.2223	0.061
11.2633	0.083
11.3043	0.104
11.3453	0.135
11.3863	0.152
11.4273	0.176
11.4683	0.193
11.5093	0.211
11.5502	0.247
11.5912	0.285
11.6322	0.333
11.6732	0.376
11.7142	0.413
11.7552	0.442
11.7962	0.463
11.8372	0.48
11.8781	0.473
11.9191	0.429
11.9601	0.329
12.0011	0.225
12.0421	0.215
12.0831	0.312
12.1241	0.398
12.1651	0.471
12.2061	0.516
12.247	0.562
12.288	0.594
12.329	0.623
12.37	0.647
12.411	0.661
12.452	0.675
12.493	0.685
12.534	0.694
12.5749	0.7
12.6159	0.705
12.6569	0.716
12.6979	0.723
12.7389	0.728
12.7799	0.726
12.8209	0.717
12.8619	0.685
12.9029	0.649
12.9438	0.656
12.9848	0.717
13.0258	0.764
13.0668	0.788
13.1078	0.805
13.1488	0.815
13.1898	0.822
13.2308	0.823
13.2717	0.827
13.3127	0.827
13.3537	0.83
13.3947	0.832
13.4357	0.835
13.4767	0.835
13.5177	0.839
13.5587	0.842
13.5996	0.844
13.6406	0.846
13.6816	0.847
13.7226	0.849
13.7636	0.847
13.8046	0.842
13.8456	0.829
13.8866	0.805
13.9276	0.776
13.9685	0.736
14.0095	0.716
14.0505	0.709
14.0915	0.717
14.1325	0.741
14.1735	0.765
14.2145	0.796
14.2555	0.818
14.2964	0.834
14.3374	0.844
14.3784	0.849
14.4194	0.852
14.4604	0.852
14.5014	0.851
14.5424	0.844
14.5834	0.834
14.6244	0.818
14.6653	0.803
14.7063	0.77
14.7473	0.736
14.7883	0.695
14.8293	0.646
14.8703	0.605
14.9113	0.591
14.9523	0.589
14.9932	0.589
15.0342	0.596
15.0752	0.608
15.1162	0.642
15.1572	0.692
15.1982	0.719
15.2392	0.729
15.2802	0.733
15.3212	0.731
15.3621	0.724
15.4031	0.721
15.4441	0.712
15.4851	0.704
15.5261	0.692
15.5671	0.678
15.6081	0.658
15.6491	0.615
15.69	0.565
15.731	0.517
15.772	0.505
15.813	0.507
15.854	0.524
15.895	0.545
15.936	0.56
