Infrared Spectrum: 5-Aminoisophthalic acid, dimethyl ester
Formula: C10 H11 N O4
CAS: 99-27-4
State: SOLID (SPLIT MULL), FLUOROLUBE FOR 3800-1330 CM^-^1, NUJOL FOR 1330-400 CM^-^1
Melting point: 180 C
Class: COBLENTZ III
Instrument: BECKMAN IR-9 (GRATING)
Instrument parameters: ORDER CHANGES: 670, 1200, 2000 CM^-^1
Sampling: TRANSMISSION
Resolution: 2
Origin: DOW CHEMICAL COMPANY
1/CM	TRANSMITTANCE
3800	0.5593
3791	0.5606
3782	0.5622
3773	0.5637
3764	0.5652
3755	0.5667
3746	0.5683
3737	0.5699
3728	0.5715
3719	0.5733
3710	0.5754
3701	0.5774
3692	0.5795
3683	0.5816
3674	0.5837
3665	0.5858
3656	0.5881
3647	0.5902
3638	0.5924
3629	0.5945
3620	0.5962
3611	0.5981
3602	0.5999
3593	0.6014
3584	0.6024
3575	0.6034
3566	0.6037
3557	0.6038
3548	0.6042
3539	0.6058
3530	0.6104
3521	0.6162
3512	0.622
3503	0.6268
3494	0.6303
3485	0.6318
3476	0.6284
3467	0.4947
3458	0.2716
3449	0.3522
3440	0.4626
3431	0.4956
3422	0.5228
3413	0.5404
3404	0.5558
3395	0.5705
3386	0.5815
3377	0.5752
3368	0.2884
3359	0.3366
3350	0.4618
3341	0.4936
3332	0.5093
3323	0.5212
3314	0.5312
3305	0.5412
3296	0.5512
3287	0.5599
3278	0.5677
3269	0.5745
3260	0.5775
3251	0.578
3242	0.5771
3233	0.5677
3224	0.559
3215	0.5659
3206	0.5768
3197	0.585
3188	0.5922
3179	0.5988
3170	0.6051
3161	0.6101
3152	0.6142
3143	0.6162
3134	0.6157
3125	0.6127
3116	0.6176
3107	0.6214
3098	0.6241
3089	0.626
3080	0.6266
3071	0.6236
3062	0.6225
3053	0.6259
3044	0.6234
3035	0.6187
3026	0.6198
3017	0.6157
3008	0.6134
2999	0.6249
2990	0.6386
2981	0.6481
2972	0.6496
2963	0.6441
2954	0.5338
2945	0.5943
2936	0.6149
2927	0.6274
2918	0.638
2909	0.6426
2900	0.6445
2891	0.6458
2882	0.6488
2873	0.6518
2864	0.6545
2855	0.6545
2846	0.6471
2837	0.6547
2828	0.6611
2819	0.666
2810	0.6704
2801	0.6733
2792	0.6751
2783	0.6762
2774	0.6778
2765	0.6796
2756	0.6818
2747	0.6844
2738	0.686
2729	0.6869
2720	0.6878
2711	0.688
2702	0.6882
2693	0.6883
2684	0.6886
2675	0.69
2666	0.6943
2657	0.6982
2648	0.7018
2639	0.704
2630	0.7058
2621	0.7068
2612	0.7069
2603	0.7068
2594	0.7064
2585	0.7061
2576	0.7067
2567	0.7087
2558	0.7107
2549	0.7124
2540	0.7142
2531	0.7155
2522	0.7165
2513	0.7174
2504	0.7172
2495	0.7168
2486	0.7164
2477	0.7158
2468	0.7156
2459	0.7154
2450	0.7151
2441	0.7149
2432	0.7147
2423	0.7145
2414	0.7147
2405	0.7149
2396	0.7158
2387	0.7162
2378	0.7236
2369	0.7288
2360	0.7275
2351	0.7245
2342	0.7222
2333	0.7198
2324	0.7172
2315	0.7165
2306	0.7165
2297	0.7181
2288	0.7201
2279	0.7211
2270	0.7238
2261	0.7292
2252	0.7346
2243	0.7418
2234	0.7492
2225	0.7551
2216	0.7601
2207	0.7634
2198	0.7645
2189	0.7653
2180	0.7661
2171	0.7674
2162	0.7695
2153	0.7768
2144	0.7764
2135	0.775
2126	0.7785
2117	0.7857
2108	0.7912
2099	0.7964
2090	0.8008
2081	0.8047
2072	0.8081
2063	0.8112
2054	0.8145
2045	0.8175
2036	0.8205
2027	0.8235
2018	0.8266
2009	0.826
2000	0.8213
1991	0.8287
1982	0.8321
1973	0.8364
1964	0.8415
1955	0.8463
1946	0.8496
1937	0.8478
1928	0.847
1919	0.8471
1910	0.8483
1901	0.8495
1892	0.8513
1883	0.8535
1874	0.8573
1865	0.8625
1856	0.8675
1847	0.8708
1838	0.8733
1829	0.8748
1820	0.8747
1811	0.8611
1802	0.8512
1793	0.8586
1784	0.8662
1775	0.8778
1766	0.8874
1757	0.8852
1748	0.8934
1739	0.8725
1730	0.7596
1721	0.4429
1712	0.0915
1703	0.0832
1694	0.2521
1685	0.4574
1676	0.557
1667	0.6104
1658	0.6592
1649	0.7132
1640	0.6622
1631	0.503
1622	0.5599
1613	0.6122
1604	0.4235
1595	0.6239
1586	0.7042
1577	0.7251
1568	0.7467
1559	0.7612
1550	0.7693
1541	0.785
1532	0.7975
1523	0.8033
1514	0.8058
1505	0.8139
1496	0.8164
1487	0.8008
1478	0.76
1469	0.6698
1460	0.5083
1451	0.4455
1442	0.3873
1433	0.2375
1424	0.6036
1415	0.6761
1406	0.7249
1397	0.7665
1388	0.7638
1379	0.7356
1370	0.5462
1361	0.1341
1352	0.1733
1343	0.2103
1334	0.3059
1325	0.5929
1316	0.6876
1307	0.7097
1298	0.7312
1289	0.7212
1280	0.4951
1271	0.6046
1262	0.2278
1253	0.3718
1244	0.2279
1235	0.5496
1226	0.6926
1217	0.7147
1208	0.7837
1199	0.7796
1190	0.7321
1181	0.7806
1172	0.804
1163	0.811
1154	0.8071
1145	0.7872
1136	0.6592
1127	0.5664
1118	0.7601
1109	0.8171
1100	0.7938
1091	0.8015
1082	0.8302
1073	0.8457
1064	0.8566
1055	0.8634
1046	0.8652
1037	0.8632
1028	0.8431
1019	0.4084
1010	0.5528
1001	0.7496
992	0.622
983	0.7808
974	0.8221
965	0.8378
956	0.8466
947	0.8536
938	0.8595
929	0.8625
920	0.8072
911	0.835
902	0.8245
893	0.7158
884	0.6771
875	0.8584
866	0.87
857	0.8738
848	0.8755
839	0.8778
830	0.8818
821	0.8852
812	0.888
803	0.8908
794	0.8908
785	0.8628
776	0.8571
767	0.8413
758	0.7461
749	0.4419
740	0.8244
731	0.8193
722	0.7606
713	0.8637
704	0.8966
695	0.9074
686	0.9096
677	0.8575
668	0.8871
659	0.8911
650	0.8916
641	0.8902
632	0.8886
623	0.8864
614	0.8827
605	0.8785
596	0.8678
587	0.8133
578	0.8532
569	0.8602
560	0.7789
551	0.8025
542	0.8328
533	0.8313
524	0.8343
515	0.84
506	0.8441
497	0.8448
488	0.843
479	0.8371
470	0.8295
461	0.8141
452	0.7871
443	0.7554
434	0.7007
425	0.651
416	0.6325
407	0.632
