Infrared Spectrum: 2,6-DIBROMO-4-NITROPHENOL
Formula: C6 H3 Br2 N O3
CAS: 99-28-5
State: SOLID (MINERAL OIL MULL)
Melting point: 139 C (DECOMPOSE)
Class: COBLENTZ
Instrument: Not specified, most likely a prism, grating, or hybrid spectrometer.
Sampling: TRANSMISSION
Resolution: 4
Origin: WYANDOTTE CHEMICALS CORP., WYANDOTTE, MICHIGAN, USA
MICROMETERS	TRANSMITTANCE
2.025	0.397
2.06218	0.397
2.09937	0.395
2.13655	0.395
2.17374	0.402
2.21092	0.397
2.2481	0.399
2.28529	0.399
2.32247	0.402
2.35966	0.403
2.39684	0.413
2.43402	0.419
2.47121	0.414
2.50839	0.419
2.54558	0.42
2.58276	0.437
2.61994	0.44
2.65713	0.454
2.69431	0.458
2.7315	0.458
2.76868	0.458
2.80586	0.458
2.84305	0.459
2.88023	0.462
2.91742	0.423
2.9546	0.318
2.99178	0.187
3.02897	0.254
3.06615	0.327
3.10334	0.358
3.14052	0.358
3.1777	0.343
3.21489	0.344
3.25207	0.265
3.28926	0.31
3.32644	0.236
3.36363	0.059
3.40081	0.029
3.43799	0.038
3.47518	0.071
3.51236	0.082
3.54955	0.344
3.58673	0.419
3.62391	0.45
3.6611	0.445
3.69828	0.45
3.73547	0.451
3.77265	0.453
3.80983	0.467
3.84702	0.478
3.8842	0.486
3.92139	0.501
3.95857	0.501
3.99575	0.498
4.03294	0.517
4.07012	0.507
4.10731	0.496
4.14449	0.509
4.18167	0.529
4.21886	0.529
4.25604	0.51
4.29323	0.54
4.33041	0.559
4.36759	0.58
4.40478	0.577
4.44196	0.563
4.47915	0.571
4.51633	0.579
4.55351	0.577
4.5907	0.588
4.62788	0.593
4.66507	0.604
4.70225	0.6
4.73943	0.611
4.77662	0.621
4.8138	0.627
4.85099	0.641
4.88817	0.639
4.92535	0.645
4.96254	0.652
4.99972	0.65
5.03691	0.658
5.07409	0.661
5.11127	0.667
5.14846	0.673
5.18564	0.683
5.22283	0.687
5.26001	0.697
5.29719	0.701
5.33438	0.717
5.37156	0.717
5.40875	0.737
5.44593	0.729
5.48311	0.736
5.5203	0.742
5.55748	0.76
5.59467	0.751
5.63185	0.697
5.66903	0.725
5.70622	0.739
5.7434	0.781
5.78059	0.805
5.81777	0.809
5.85495	0.798
5.89214	0.818
5.92932	0.819
5.96651	0.818
6.00369	0.821
6.04088	0.86
6.07806	0.871
6.11524	0.877
6.15243	0.905
6.18961	0.931
6.2268	0.833
6.26398	0.802
6.30116	0.378
6.33835	0.619
6.37553	0.771
6.41272	0.908
6.4499	0.914
6.48708	0.799
6.52427	0.504
6.56145	0.214
6.59864	0.192
6.63582	0.375
6.673	0.416
6.71019	0.399
6.74737	0.315
6.78456	0.071
6.82174	0.097
6.85892	0.223
6.89611	0.344
6.93329	0.468
6.97048	0.577
7.00766	0.524
7.04484	0.4
7.08203	0.324
7.11921	0.509
7.1564	0.537
7.19358	0.444
7.23076	0.313
7.26795	0.305
7.30513	0.341
7.34232	0.366
7.3795	0.319
7.41668	0.229
7.45387	0.195
7.49105	0.164
7.52824	0.099
7.56542	0.105
7.6026	0.18
7.63979	0.246
7.67697	0.295
7.71416	0.324
7.75134	0.363
7.78852	0.383
7.82571	0.369
7.86289	0.414
7.90008	0.475
7.93726	0.545
7.97444	0.565
8.01163	0.531
8.04881	0.388
8.086	0.214
8.12318	0.194
8.16036	0.274
8.19755	0.263
8.23473	0.27
8.27192	0.291
8.3091	0.346
8.34628	0.423
8.38347	0.486
8.42065	0.555
8.45784	0.618
8.49502	0.659
8.5322	0.678
8.56939	0.664
8.60657	0.507
8.64376	0.349
8.68094	0.222
8.71813	0.231
8.75531	0.454
8.79249	0.391
8.82968	0.127
8.86686	0.119
8.90405	0.172
8.94123	0.22
8.97841	0.246
9.0156	0.265
9.05278	0.274
9.08997	0.284
9.12715	0.296
9.16433	0.307
9.20152	0.321
9.2387	0.33
9.27589	0.338
9.31307	0.349
9.35025	0.341
9.38744	0.35
9.42462	0.358
9.46181	0.377
9.49899	0.389
9.53617	0.402
9.57336	0.42
9.61054	0.43
9.64773	0.437
9.68491	0.447
9.72209	0.458
9.75928	0.465
9.79646	0.486
9.83365	0.492
9.87083	0.495
9.90801	0.507
9.9452	0.52
9.98238	0.524
10.0196	0.54
10.0568	0.549
10.0939	0.559
10.1311	0.566
10.1683	0.572
10.2055	0.577
10.2427	0.577
10.2799	0.58
10.317	0.583
10.3542	0.59
10.3914	0.599
10.4286	0.602
10.4658	0.607
10.503	0.607
10.5401	0.61
10.5773	0.61
10.6145	0.621
10.6517	0.624
10.6889	0.622
10.7261	0.633
10.7632	0.644
10.8004	0.641
10.8376	0.645
10.8748	0.661
10.912	0.659
10.9492	0.669
10.9864	0.678
11.0235	0.599
11.0607	0.397
11.0979	0.312
11.1351	0.349
11.1723	0.548
11.2095	0.636
11.2466	0.661
11.2838	0.649
11.321	0.61
11.3582	0.628
11.3954	0.695
11.4326	0.723
11.4697	0.726
11.5069	0.732
11.5441	0.729
11.5813	0.732
11.6185	0.739
11.6557	0.739
11.6928	0.743
11.73	0.743
11.7672	0.748
11.8044	0.748
11.8416	0.753
11.8788	0.756
11.916	0.759
11.9531	0.759
11.9903	0.763
12.0275	0.768
12.0647	0.784
12.1019	0.784
12.1391	0.785
12.1762	0.787
12.2134	0.801
12.2506	0.773
12.2878	0.737
12.325	0.779
12.3622	0.798
12.3993	0.793
12.4365	0.815
12.4737	0.815
12.5109	0.821
12.5481	0.818
12.5853	0.819
12.6224	0.824
12.6596	0.824
12.6968	0.826
12.734	0.826
12.7712	0.824
12.8084	0.815
12.8456	0.81
12.8827	0.804
12.9199	0.81
12.9571	0.815
12.9943	0.827
13.0315	0.836
13.0687	0.833
13.1058	0.84
13.143	0.849
13.1802	0.836
13.2174	0.812
13.2546	0.799
13.2918	0.77
13.3289	0.69
13.3661	0.512
13.4033	0.327
13.4405	0.204
13.4777	0.175
13.5149	0.173
13.552	0.267
13.5892	0.419
13.6264	0.517
13.6636	0.582
13.7008	0.624
13.738	0.653
13.7752	0.677
13.8123	0.666
13.8495	0.597
13.8867	0.596
13.9239	0.709
13.9611	0.782
13.9983	0.813
14.0354	0.833
14.0726	0.852
14.1098	0.866
14.147	0.878
14.1842	0.885
14.2214	0.9
14.2585	0.906
14.2957	0.894
14.3329	0.838
14.3701	0.743
14.4073	0.593
14.4445	0.456
14.4816	0.374
14.5188	0.354
14.556	0.408
14.5932	0.473
14.6304	0.531
14.6676	0.572
14.7048	0.599
14.7419	0.624
14.7791	0.638
14.8163	0.645
14.8535	0.65
14.8907	0.659
14.9279	0.656
14.965	0.65
15.0022	0.628
15.0394	0.58
15.0766	0.562
15.1138	0.563
15.151	0.593
15.1881	0.622
15.2253	0.633
15.2625	0.641
15.2997	0.645
15.3369	0.645
15.3741	0.644
15.4113	0.63
15.4484	0.625
15.4856	0.621
15.5228	0.621
15.56	0.616
15.5972	0.602
15.6344	0.597
15.6715	0.594
15.7087	0.576
15.7459	0.571
15.7831	0.554
15.8203	0.551
15.8575	0.538
15.8946	0.532
15.9318	0.524
15.969	0.515
