Infrared Spectrum: 1,3,5-TRINITROBENZENE
Formula: C6 H3 N3 O6
CAS: 99-35-4
State: SOLID (NUJOL MULL)
Class: COBLENTZ III
Instrument: BECKMAN IR-7 (GRATING)
Instrument parameters: GRATING CHANGES AT 3000, 2200, 1150 CM^-^1
Sampling: TRANSMISSION
Resolution: 4
Origin: WESTERN REGIONAL RES. USDA
1/CM	TRANSMITTANCE
596.749	0.879
605.853	0.879
614.956	0.879
624.06	0.879
633.163	0.865
642.267	0.853
651.371	0.871
660.474	0.867
669.578	0.857
678.681	0.846
687.785	0.831
696.888	0.799
705.992	0.66
715.096	0.449
724.199	0.3953
733.303	0.5681
742.406	0.829
751.51	0.817
760.614	0.846
769.717	0.851
778.821	0.853
787.924	0.854
797.028	0.851
806.131	0.853
815.235	0.851
824.339	0.847
833.442	0.846
842.546	0.845
851.649	0.844
860.753	0.844
869.857	0.843
878.96	0.839
888.064	0.832
897.167	0.824
906.271	0.716
915.374	0.516
924.478	0.685
933.582	0.823
942.685	0.835
951.789	0.837
960.892	0.835
969.996	0.833
979.1	0.834
988.203	0.835
997.307	0.826
1006.41	0.826
1015.51	0.823
1024.62	0.823
1033.72	0.821
1042.82	0.814
1051.93	0.794
1061.03	0.711
1070.14	0.558
1079.24	0.622
1088.34	0.705
1097.45	0.793
1106.55	0.819
1115.65	0.825
1124.76	0.828
1133.86	0.826
1142.96	0.821
1152.07	0.814
1161.17	0.808
1170.27	0.807
1179.38	0.812
1188.48	0.815
1197.59	0.815
1206.69	0.812
1215.79	0.807
1224.9	0.81
1234	0.808
1243.1	0.8
1252.21	0.778
1261.31	0.786
1270.41	0.792
1279.52	0.784
1288.62	0.753
1297.73	0.744
1306.83	0.738
1315.93	0.7
1325.04	0.584
1334.14	0.31
1343.24	0.067
1352.35	0.407
1361.45	0.543
1370.55	0.635
1379.66	0.696
1388.76	0.744
1397.86	0.787
1406.97	0.798
1416.07	0.799
1425.18	0.789
1434.28	0.685
1443.38	0.641
1452.49	0.622
1461.59	0.615
1470.69	0.711
1479.8	0.73
1488.9	0.712
1498	0.639
1507.11	0.608
1516.21	0.502
1525.31	0.377
1534.42	0.12
1543.52	0.062
1552.63	0.156
1561.73	0.541
1570.83	0.715
1579.94	0.76
1589.04	0.748
1598.14	0.728
1607.25	0.684
1616.35	0.412
1625.45	0.647
1634.56	0.781
1643.66	0.796
1652.76	0.796
1661.87	0.812
1670.97	0.814
1680.08	0.816
1689.18	0.821
1698.28	0.823
1707.39	0.821
1716.49	0.821
1725.59	0.825
1734.7	0.826
1743.8	0.827
1752.9	0.828
1762.01	0.83
1771.11	0.83
1780.22	0.829
1789.32	0.829
1798.42	0.827
1807.53	0.825
1816.63	0.815
1825.73	0.819
1834.84	0.812
1843.94	0.805
1853.04	0.801
1862.15	0.813
1871.25	0.822
1880.35	0.822
1889.46	0.822
1898.56	0.823
1907.67	0.822
1916.77	0.821
1925.87	0.821
1934.98	0.819
1944.08	0.817
1953.18	0.815
1962.29	0.817
1971.39	0.817
1980.49	0.817
1989.6	0.817
1998.7	0.816
2007.8	0.815
2016.91	0.815
2026.01	0.815
2035.12	0.815
2044.22	0.815
2053.32	0.815
2062.43	0.815
2071.53	0.815
2080.63	0.815
2089.74	0.814
2098.84	0.814
2107.94	0.814
2117.05	0.814
2126.15	0.814
2135.25	0.814
2144.36	0.814
2153.46	0.814
2162.57	0.813
2171.67	0.812
2180.77	0.8114
2189.88	0.809
2198.98	0.808
2208.08	0.807
2217.19	0.806
2226.29	0.805
2235.39	0.804
2244.5	0.803
2253.6	0.8019
2262.71	0.7994
2271.81	0.798
2280.91	0.797
2290.02	0.795
2299.12	0.794
2308.22	0.7954
2317.33	0.797
2326.43	0.799
2335.53	0.799
2344.64	0.799
2353.74	0.799
2362.84	0.798
2371.95	0.798
2381.05	0.798
2390.16	0.7976
2399.26	0.797
2408.36	0.796
2417.47	0.7949
2426.57	0.794
2435.67	0.793
2444.78	0.792
2453.88	0.791
2462.98	0.7919
2472.09	0.792
2481.19	0.793
2490.29	0.794
2499.4	0.794
2508.5	0.794
2517.61	0.7918
2526.71	0.7883
2535.81	0.7877
2544.92	0.787
2554.02	0.788
2563.12	0.789
2572.23	0.788
2581.33	0.787
2590.43	0.7854
2599.54	0.7838
2608.64	0.783
2617.74	0.781
2626.85	0.7801
2635.95	0.779
2645.06	0.778
2654.16	0.7765
2663.26	0.7749
2672.37	0.774
2681.47	0.772
2690.57	0.772
2699.68	0.773
2708.78	0.7739
2717.88	0.775
2726.99	0.776
2736.09	0.776
2745.2	0.776
2754.3	0.775
2763.4	0.774
2772.51	0.7722
2781.61	0.7694
2790.71	0.7643
2799.82	0.7563
2808.92	0.749
2818.02	0.7399
2827.13	0.7133
2836.23	0.6454
2845.33	0.4882
2854.44	0.4508
2863.54	0.4686
2872.65	0.4863
2881.75	0.4907
2890.85	0.4671
2899.96	0.4115
2909.06	0.3555
2918.16	0.2976
2927.27	0.2954
2936.37	0.3532
2945.47	0.3694
2954.58	0.3515
2963.68	0.3942
2972.78	0.5028
2981.89	0.6126
2990.99	0.6402
3000.1	0.675
3009.2	0.6921
3018.3	0.7068
3027.41	0.7083
3036.51	0.7071
3045.61	0.694
3054.72	0.673
3063.82	0.6625
3072.92	0.6782
3082.03	0.6428
3091.13	0.4932
3100.24	0.3678
3109.34	0.4556
3118.44	0.6292
3127.55	0.7176
3136.65	0.731
3145.75	0.7346
3154.86	0.736
3163.96	0.7367
3173.06	0.738
3182.17	0.739
3191.27	0.739
3200.37	0.74
3209.48	0.7405
3218.58	0.742
3227.69	0.743
3236.79	0.744
3245.89	0.745
3255	0.7448
3264.1	0.7432
3273.2	0.743
3282.31	0.7421
3291.41	0.7415
3300.51	0.741
3309.62	0.741
3318.72	0.74
3327.82	0.74
3336.93	0.739
3346.03	0.738
3355.14	0.738
3364.24	0.738
3373.34	0.738
3382.45	0.737
3391.55	0.737
3400.65	0.737
3409.76	0.737
3418.86	0.737
3427.96	0.736
3437.07	0.736
3446.17	0.736
3455.27	0.735
3464.38	0.735
3473.48	0.735
3482.59	0.7351
3491.69	0.736
3500.79	0.736
3509.9	0.736
3519	0.7364
3528.1	0.737
3537.21	0.7375
3546.31	0.738
3555.41	0.738
3564.52	0.738
3573.62	0.738
3582.73	0.738
3591.83	0.738
3600.93	0.7374
3610.04	0.738
3619.14	0.738
3628.24	0.738
3637.35	0.738
3646.45	0.738
3655.55	0.737
3664.66	0.7367
3673.76	0.736
3682.86	0.736
3691.97	0.7351
3701.07	0.734
3710.18	0.733
3719.28	0.732
3728.38	0.7309
3737.49	0.729
3746.59	0.728
3755.69	0.727
3764.8	0.727
3773.9	0.727
3783	0.7265
3792.11	0.725
3801.21	0.725
3810.31	0.724
3819.42	0.723
3828.52	0.722
3837.63	0.72
3846.73	0.719
3855.83	0.718
3864.94	0.72
3874.04	0.722
3883.14	0.722
3892.25	0.722
3901.35	0.7203
3910.45	0.72
3919.56	0.719
3928.66	0.718
3937.76	0.718
3946.87	0.7175
3955.97	0.717
3965.08	0.716
3974.18	0.716
3983.28	0.7153
3992.39	0.714
4001.49	0.713
