Infrared Spectrum: Botran
Formula: C 6 H 4 Cl 2 N 2 O 2
CAS: 99-30-9
State: gas
Instrument: HP-GC/MS/IRD
Origin: NIST Mass Spectrometry Data Center
1/CM	ABSORBANCE
550	0.0010688
562	0.0007968
574	0.0004064
586	0.0004384
598	0.0001856
610	8.32e-05
622	0.0001152
634	0.0002016
646	0.0003072
658	0.0005408
670	0.0008416
682	0.0016672
694	0.0037344
706	0.005744
718	0.0025984
730	0.0025152
742	0.0029216
754	0.0014112
766	0.0009056
778	0.0020352
790	0.0041664
802	0.0048288
814	0.0026944
826	0.0023232
838	0.0017632
850	0.001456
862	0.000976
874	0.0008704
886	0.0016576
898	0.0027808
910	0.001344
922	0.00048
934	0.0003392
946	0.0003808
958	0.000272
970	0.0001504
982	0.0001952
994	0.0001376
1006	0.0001472
1018	9.92e-05
1030	0.0001504
1042	0.000368
1054	0.0010112
1066	0.0022592
1078	0.0023232
1090	0.0011072
1102	0.00064
1114	0.00064
1126	0.0015456
1138	0.0052736
1150	0.0041024
1162	0.0009344
1174	0.0004128
1186	0.000272
1198	0.0004576
1210	0.000672
1222	0.000544
1234	0.000384
1246	0.0004896
1258	0.000944
1270	0.0010304
1282	0.0009312
1294	0.0009888
1306	0.0011808
1318	0.0025824
1330	0.0102528
1342	0.0307648
1354	0.0181984
1366	0.003168
1378	0.0027328
1390	0.0016992
1402	0.001168
1414	0.0015424
1426	0.0015616
1438	0.0013696
1450	0.0015872
1462	0.0041472
1474	0.0099904
1486	0.0058624
1498	0.0040224
1510	0.0036544
1522	0.0039776
1534	0.0135072
1546	0.0202944
1558	0.0042464
1570	0.0018016
1582	0.0028224
1594	0.0046016
1606	0.0094272
1618	0.0146592
1630	0.0056224
1642	0.0022112
1654	0.0009472
1666	0.0005696
1678	0.0004608
1690	0.0003488
1702	0.0003136
1714	0.0002144
1726	0.0001408
1738	8.96e-05
1750	0.0001248
1762	0.0002752
1774	0.000448
1786	0.0003776
1798	0.0001632
1810	8.64e-05
1822	8.64e-05
1834	9.28e-05
1846	8e-05
1858	7.68e-05
1870	3.2e-05
1882	5.76e-05
1894	4.48e-05
1906	4.8e-05
1918	5.44e-05
1930	4.8e-05
1942	3.52e-05
1954	3.2e-05
1966	6.72e-05
1978	5.76e-05
1990	3.84e-05
2002	6.72e-05
2014	7.68e-05
2026	6.72e-05
2038	8.32e-05
2050	6.72e-05
2062	7.04e-05
2074	4.48e-05
2086	5.44e-05
2098	6.08e-05
2110	9.6e-05
2122	7.68e-05
2134	8.32e-05
2146	6.72e-05
2158	6.72e-05
2170	0.0001056
2182	8.64e-05
2194	8.96e-05
2206	1.92e-05
2218	3.84e-05
2230	2.56e-05
2242	1.92e-05
2254	0.0001024
2266	0.0001024
2278	8.96e-05
2290	0.0001184
2302	0.0001024
2314	4.16e-05
2326	3.2e-05
2338	3.84e-05
2350	4.48e-05
2362	6.4e-05
2374	7.68e-05
2386	9.6e-05
2398	2.56e-05
2410	8e-05
2422	7.04e-05
2434	8e-05
2446	5.44e-05
2458	6.4e-05
2470	0.0001024
2482	0.0001632
2494	0.0001344
2506	7.04e-05
2518	0.000128
2530	0.0001376
2542	9.6e-05
2554	2.88e-05
2566	7.36e-05
2578	3.2e-05
2590	4.48e-05
2602	7.68e-05
2614	0.0001408
2626	0.0002304
2638	0.0003872
2650	0.0002688
2662	0.0001344
2674	1.6e-05
2686	2.88e-05
2698	3.52e-05
2710	5.12e-05
2722	6.4e-06
2734	7.68e-05
2746	7.36e-05
2758	6.08e-05
2770	3.52e-05
2782	6.08e-05
2794	6.72e-05
2806	4.8e-05
2818	8.96e-05
2830	0.000144
2842	0.0001056
2854	0.0001408
2866	0.0002368
2878	0.0003456
2890	0.0002368
2902	0.0001632
2914	0.0002624
2926	0.000256
2938	0.0001504
2950	0.000128
2962	0.0001088
2974	7.04e-05
2986	7.04e-05
2998	7.04e-05
3010	8.64e-05
3022	1.6e-05
3034	0.0001184
3046	0.0001472
3058	0.0001344
3070	0.0001312
3082	0.0003392
3094	0.0008
3106	0.0010784
3118	0.0003584
3130	0.0001408
3142	0.000112
3154	7.68e-05
3166	0.0001504
3178	0.0001568
3190	0.000144
3202	9.92e-05
3214	6.72e-05
3226	4.16e-05
3238	0.0001024
3250	8.96e-05
3262	8e-05
3274	7.04e-05
3286	5.76e-05
3298	5.76e-05
3310	8e-05
3322	7.04e-05
3334	6.08e-05
3346	0.0001184
3358	4.48e-05
3370	0.0001696
3382	0.0003616
3394	0.0009792
3406	0.0024032
3418	0.0028096
3430	0.0037056
3442	0.0023296
3454	0.0005504
3466	0.0004608
3478	0.0005376
3490	0.0008544
3502	0.0015744
3514	0.0018208
3526	0.001776
3538	0.0024832
3550	0.0013728
3562	0.0002592
3574	0.0001472
3586	5.44e-05
3598	6.08e-05
3610	8.96e-05
3622	7.36e-05
3634	1.6e-05
3646	5.44e-05
3658	8.64e-05
3670	4.8e-05
3682	5.44e-05
3694	8.96e-05
3706	2.24e-05
3718	7.68e-05
3730	9.6e-05
3742	9.92e-05
3754	6.4e-06
3766	0.0001824
3778	7.04e-05
3790	7.36e-05
3802	3.2e-05
3814	6.4e-06
3826	4.16e-05
3838	1.28e-05
