Infrared Spectrum: Methyl 4-hydroxy-3-nitrobenzoate
Formula: C 8 H 7 N O 5
CAS: 99-42-3
State: gas
Origin: EPA-IR VAPOR PHASE LIBRARY
1/CM	ABSORBANCE
549.9	0.01424
559.547	0.0159
569.193	0.01429
578.84	0.01058
588.486	0.00892
598.133	0.009
607.779	0.00908
617.426	0.01035
627.072	0.0187
636.719	0.03322
646.365	0.02445
656.012	0.0196
665.658	0.02428
675.305	0.03595
684.951	0.05452
694.598	0.07262
704.245	0.06456
713.891	0.03581
723.538	0.01766
733.184	0.0105
742.831	0.01067
752.477	0.02618
762.124	0.05755
771.77	0.03883
781.417	0.0127
791.063	0.00661
800.71	0.00794
810.356	0.01058
820.003	0.02147
829.649	0.02762
839.296	0.02899
848.943	0.0246
858.589	0.01059
868.236	0.00516
877.882	0.0039386
887.529	0.0061
897.175	0.01336
906.822	0.02281
916.468	0.01839
926.115	0.01218
935.761	0.00809
945.408	0.00502
955.054	0.00592
964.701	0.01481
974.347	0.02769
983.994	0.02884
993.64	0.02165
1003.29	0.00771
1012.93	0.00503
1022.58	0.00422
1032.23	0.003937
1041.87	0.00476
1051.52	0.00761
1061.17	0.01467
1070.81	0.02396
1080.46	0.0272
1090.11	0.03256
1099.75	0.06265
1109.4	0.08963
1119.05	0.09061
1128.69	0.08007
1138.34	0.07635
1147.99	0.06621
1157.63	0.04869
1167.28	0.05792
1176.92	0.09547
1186.57	0.18634
1196.22	0.28649
1205.86	0.24931
1215.51	0.14251
1225.16	0.096
1234.8	0.08408
1244.45	0.1004
1254.1	0.15607
1263.74	0.23044
1273.39	0.31038
1283.04	0.44357
1292.68	0.44406
1302.33	0.22863
1311.98	0.15157
1321.62	0.2149
1331.27	0.18872
1340.92	0.12117
1350.56	0.0983
1360.21	0.06881
1369.86	0.04719
1379.5	0.03738
1389.15	0.03283
1398.79	0.03171
1408.44	0.03454
1418.09	0.0478
1427.73	0.08138
1437.38	0.13995
1447.03	0.09265
1456.67	0.0425
1466.32	0.03477
1475.97	0.03431
1485.61	0.05425
1495.26	0.06681
1504.91	0.03334
1514.55	0.02241
1524.2	0.03101
1533.85	0.06162
1543.49	0.13134
1553.14	0.14912
1562.79	0.07781
1572.43	0.05305
1582.08	0.07198
1591.73	0.07035
1601.37	0.05648
1611.02	0.08955
1620.67	0.18181
1630.31	0.21981
1639.96	0.10238
1649.6	0.0314
1659.25	0.01541
1668.9	0.01187
1678.54	0.01253
1688.19	0.01429
1697.84	0.01855
1707.48	0.02295
1717.13	0.02049
1726.78	0.03531
1736.42	0.14243
1746.07	0.34545
1755.72	0.20622
1765.36	0.04238
1775.01	0.01812
1784.66	0.01793
1794.3	0.01746
1803.95	0.00982
1813.6	0.00636
1823.24	0.00509
1832.89	0.0046
1842.54	0.00453
1852.18	0.00451
1861.83	0.00419
1871.47	0.003102
1881.12	0.002455
1890.77	0.00215
1900.41	0.002208
1910.06	0.002336
1919.71	0.002521
1929.35	0.0031684
1939	0.00428
1948.65	0.00463
1958.29	0.0036447
1967.94	0.002549
1977.59	0.00184
1987.23	0.00148
1996.88	0.00156
2006.53	0.00156
2016.17	0.00147
2025.82	0.00137
2035.47	0.00141
2045.11	0.0016
2054.76	0.001993
2064.41	0.002269
2074.05	0.002575
2083.7	0.002445
2093.35	0.002123
2102.99	0.002022
2112.64	0.002117
2122.28	0.002106
2131.93	0.0019
2141.58	0.00165
2151.22	0.00139
2160.87	0.0011
2170.52	0.00099
2180.16	0.00109
2189.81	0.00109
2199.46	0.001
2209.1	0.00078
2218.75	0.00062
2228.4	0.00035
2238.04	0.00033
2247.69	0.0004
2257.34	0.00043
2266.98	0.00046
2276.63	0.00042
2286.28	0.0005
2295.92	0.00063
2305.57	0.00057
2315.22	0.00071
2324.86	0.00089
2334.51	0.00103
2344.16	0.00097
2353.8	0.00076
2363.45	0.00061
2373.09	0.00079
2382.74	0.00097
2392.39	0.00124
2402.03	0.00128
2411.68	0.00114
2421.33	0.00119
2430.97	0.00128
2440.62	0.00127
2450.27	0.00126
2459.91	0.00107
2469.56	0.00078
2479.21	0.00064
2488.85	0.00054
2498.5	0.00053
2508.15	0.00077
2517.79	0.00092
2527.44	0.00095
2537.09	0.00105
2546.73	0.00134
2556.38	0.0018
2566.03	0.002369
2575.67	0.002721
2585.32	0.002405
2594.96	0.00195
2604.61	0.0019
2614.26	0.00173
2623.9	0.00147
2633.55	0.00123
2643.2	0.00115
2652.84	0.00112
2662.49	0.00088
2672.14	0.00072
2681.78	0.00056
2691.43	0.0004
2701.08	0.0002
2710.72	0.00015
2720.37	0.00029
2730.02	0.00057
2739.66	0.00103
2749.31	0.00142
2758.96	0.00116
2768.6	0.00078
2778.25	0.00057
2787.9	0.00072
2797.54	0.00111
2807.19	0.00176
2816.84	0.002278
2826.48	0.002576
2836.13	0.0036106
2845.77	0.00752
2855.42	0.00931
2865.07	0.00508
2874.71	0.00458
2884.36	0.00548
2894.01	0.00722
2903.65	0.00857
2913.3	0.00947
2922.95	0.00915
2932.59	0.00812
2942.24	0.0095
2951.89	0.0211
2961.53	0.05129
2971.18	0.03146
2980.83	0.00981
2990.47	0.0081
3000.12	0.01033
3009.77	0.01085
3019.41	0.00879
3029.06	0.00866
3038.71	0.00739
3048.35	0.00451
3058	0.0032044
3067.64	0.0034872
3077.29	0.00554
3086.94	0.00932
3096.58	0.00952
3106.23	0.00634
3115.88	0.0036623
3125.52	0.002678
3135.17	0.002764
3144.82	0.0032874
3154.46	0.00443
3164.11	0.00603
3173.76	0.00776
3183.4	0.00996
3193.05	0.01323
3202.7	0.01826
3212.34	0.02418
3221.99	0.02906
3231.64	0.0325
3241.28	0.03465
3250.93	0.03504
3260.58	0.03439
3270.22	0.03238
3279.87	0.02987
3289.52	0.02756
3299.16	0.02529
3308.81	0.02375
3318.45	0.02215
3328.1	0.02118
3337.75	0.01991
3347.39	0.01828
3357.04	0.01649
3366.69	0.01494
3376.33	0.01344
3385.98	0.01205
3395.63	0.01075
3405.27	0.00963
3414.92	0.00882
3424.57	0.00797
3434.21	0.00758
3443.86	0.00715
3453.51	0.0069
3463.15	0.00751
3472.8	0.00869
3482.45	0.00828
3492.09	0.0063
3501.74	0.00552
3511.39	0.00531
3521.03	0.00512
3530.68	0.0047
3540.33	0.00438
3549.97	0.00403
3559.62	0.0038143
3569.26	0.0035135
3578.91	0.0033435
3588.56	0.00285
3598.2	0.002531
3607.85	0.002134
3617.5	0.00188
3627.14	0.00161
3636.79	0.00156
3646.44	0.00126
3656.08	0.00086
3665.73	0.00065
3675.38	0.00053
3685.02	0.00063
3694.67	0.00057
3704.32	0.00055
3713.96	0.00034
3723.61	0.00032
3733.26	0.0003
3742.9	0.00018
3752.55	0.00026
3762.2	8e-05
3771.84	9e-05
3781.49	0.00013
3791.13	5e-05
3800.78	3e-05
3810.43	0.00016
3820.07	6e-05
3829.72	0.00011
3839.37	0.00014
3849.01	7e-05
3858.66	7e-05
3868.31	0.00017
3877.95	0.00011
3887.6	0.0001
3897.25	0.00011
3906.89	5e-05
3916.54	4e-05
3926.19	4e-05
3935.83	8e-05
3945.48	0.00015
3955.13	0.00023
3964.77	0.0002
3974.42	0.0002
3984.07	0.00015
3993.71	0.00018
