Infrared Spectrum: l-Carveol
Formula: C 10 H 16 O
CAS: 99-48-9
State: gas
Instrument: HP-GC/MS/IRD
Origin: NIST Mass Spectrometry Data Center
1/CM	ABSORBANCE
550	0.0012654
562	0.0003838
574	0.0003553
586	0.0004845
598	0.0007201
610	0.0006688
622	0.0003078
634	0.0003268
646	0.0002945
658	0.0001691
670	5.51e-05
682	0.0001406
694	5.13e-05
706	0.0002071
718	0.0001862
730	0.0003002
742	0.0005168
754	0.0003952
766	0.0002831
778	0.0003648
790	0.0007486
802	0.0018487
814	0.0021242
826	0.0013946
838	0.0012958
850	0.0016093
862	0.0015371
874	0.0025574
886	0.0063574
898	0.0077729
910	0.0054036
922	0.0034827
934	0.0021204
946	0.002014
958	0.0024187
970	0.0026144
982	0.0026638
994	0.003515
1006	0.0048526
1018	0.007904
1030	0.0136192
1042	0.0139935
1054	0.0082973
1066	0.0046037
1078	0.0033858
1090	0.0023408
1102	0.0018411
1114	0.0015143
1126	0.0012901
1138	0.0014478
1150	0.0019475
1162	0.0023997
1174	0.0023047
1186	0.0020064
1198	0.0025403
1210	0.003344
1222	0.0035663
1234	0.0033402
1246	0.0028823
1258	0.0027398
1270	0.002603
1282	0.0025061
1294	0.0023427
1306	0.0022325
1318	0.0024586
1330	0.0027987
1342	0.0029374
1354	0.0033915
1366	0.0049324
1378	0.006479
1390	0.0047082
1402	0.0026961
1414	0.0022002
1426	0.0028367
1438	0.0044137
1450	0.0055651
1462	0.0045524
1474	0.0022439
1486	0.001159
1498	0.0008151
1510	0.0007334
1522	0.0006479
1534	0.0004959
1546	0.0005301
1558	0.0005928
1570	0.0005415
1582	0.0006346
1594	0.0007619
1606	0.0009443
1618	0.0013015
1630	0.0023921
1642	0.0038912
1654	0.0026961
1666	0.0009766
1678	0.000456
1690	0.000285
1702	0.0002546
1714	0.0002413
1726	0.0001843
1738	0.0001596
1750	0.0001672
1762	0.0001577
1774	0.0002831
1786	0.0004959
1798	0.0005054
1810	0.0002489
1822	0.0001007
1834	7.22e-05
1846	5.7e-05
1858	4.75e-05
1870	4.94e-05
1882	3.23e-05
1894	6.84e-05
1906	3.99e-05
1918	2.09e-05
1930	2.85e-05
1942	5.32e-05
1954	3.99e-05
1966	2.66e-05
1978	2.09e-05
1990	3.8e-06
2002	3.23e-05
2014	3.8e-06
2026	3.23e-05
2038	5.89e-05
2050	2.47e-05
2062	2.66e-05
2074	6.84e-05
2086	6.27e-05
2098	4.56e-05
2110	6.27e-05
2122	6.08e-05
2134	3.99e-05
2146	3.8e-06
2158	7.6e-06
2170	9.5e-06
2182	3.61e-05
2194	5.51e-05
2206	8.36e-05
2218	7.6e-06
2230	3.61e-05
2242	4.18e-05
2254	4.94e-05
2266	2.09e-05
2278	1.71e-05
2290	3.23e-05
2302	2.47e-05
2314	7.41e-05
2326	7.22e-05
2338	5.89e-05
2350	5.13e-05
2362	4.56e-05
2374	5.89e-05
2386	0.0001045
2398	0.0001216
2410	0.0001045
2422	9.12e-05
2434	9.12e-05
2446	9.88e-05
2458	9.69e-05
2470	0.0001254
2482	0.0001064
2494	0.0001273
2506	0.0001197
2518	0.0001197
2530	0.0001216
2542	0.0001387
2554	0.0001634
2566	0.0001729
2578	0.0002166
2590	0.0002223
2602	0.0002318
2614	0.000247
2626	0.0002508
2638	0.000247
2650	0.0002508
2662	0.0002888
2674	0.0002451
2686	0.0003078
2698	0.0002888
2710	0.0003553
2722	0.0004769
2734	0.0006118
2746	0.000627
2758	0.0005776
2770	0.0006004
2782	0.0007296
2794	0.0009424
2806	0.0012616
2818	0.0019437
2830	0.0034181
2842	0.0066861
2854	0.0100548
2866	0.0105488
2878	0.0091903
2890	0.0098496
2902	0.0113563
2914	0.0145806
2926	0.019
2938	0.0161481
2950	0.014136
2962	0.0114893
2974	0.0115501
2986	0.009443
2998	0.0060667
3010	0.0049172
3022	0.0042978
3034	0.0034485
3046	0.0025023
3058	0.0021394
3070	0.0031559
3082	0.0044346
3094	0.0033174
3106	0.0011875
3118	0.0006232
3130	0.0004275
3142	0.0003249
3154	0.0002337
3166	0.0002242
3178	0.0001482
3190	0.0001444
3202	8.74e-05
3214	6.27e-05
3226	8.74e-05
3238	0.0001254
3250	5.51e-05
3262	6.27e-05
3274	7.98e-05
3286	5.51e-05
3298	9.5e-05
3310	2.28e-05
3322	4.37e-05
3334	6.84e-05
3346	6.27e-05
3358	3.8e-05
3370	9.5e-05
3382	2.09e-05
3394	2.28e-05
3406	5.13e-05
3418	7.6e-05
3430	8.17e-05
3442	9.5e-05
3454	0.0001406
3466	0.0001254
3478	0.0001045
3490	3.23e-05
3502	0.0001045
3514	6.84e-05
3526	9.88e-05
3538	3.8e-06
3550	6.27e-05
3562	0.0001387
3574	0.0001463
3586	0.0005377
3598	0.000684
3610	0.0006745
3622	0.0009785
3634	0.0012844
3646	0.0017556
3658	0.0019893
3670	0.0009899
3682	0.0002793
3694	0.0001254
3706	0.0001083
3718	0.0001064
3730	4.75e-05
3742	8.36e-05
3754	9.5e-05
3766	0.0001235
3778	9.5e-05
3790	7.41e-05
3802	1.33e-05
3814	7.41e-05
3826	0.0001045
3838	0.0001615
