Infrared Spectrum: Benoxinate
Formula: C 17 H 28 N 2 O 3
CAS: 99-43-4
State: gas
Origin: EPA-IR VAPOR PHASE LIBRARY
1/CM	ABSORBANCE
551.7	0.00143
563.274	0.00139
574.848	0.0014
586.421	0.00167
597.995	0.0019
609.569	0.00182
621.143	0.00187
632.717	0.00241
644.291	0.00185
655.864	0.00131
667.438	0.00146
679.012	0.0017
690.586	0.0018
702.16	0.00201
713.734	0.0021
725.307	0.0022
736.881	0.00243
748.455	0.00313
760.029	0.00536
771.603	0.00401
783.177	0.00313
794.75	0.00241
806.324	0.00216
817.898	0.00227
829.472	0.00201
841.046	0.00165
852.619	0.00144
864.193	0.00147
875.767	0.00168
887.341	0.00191
898.915	0.0018
910.489	0.00192
922.062	0.0021
933.636	0.00215
945.21	0.00235
956.784	0.00259
968.358	0.00316
979.932	0.00398
991.505	0.0045
1003.08	0.00463
1014.65	0.00587
1026.23	0.00687
1037.8	0.00514
1049.37	0.00454
1060.95	0.00616
1072.52	0.00803
1084.1	0.00951
1095.67	0.01185
1107.24	0.01088
1118.82	0.00603
1130.39	0.00443
1141.97	0.00637
1153.54	0.00575
1165.11	0.00321
1176.69	0.00468
1188.26	0.01078
1199.83	0.01659
1211.41	0.01174
1222.98	0.00733
1234.56	0.01021
1246.13	0.0212
1257.7	0.01883
1269.28	0.01406
1280.85	0.02636
1292.42	0.0243
1304	0.00955
1315.57	0.00523
1327.15	0.00498
1338.72	0.0059
1350.29	0.00573
1361.87	0.00454
1373.44	0.00485
1385.02	0.00532
1396.59	0.0036
1408.16	0.00253
1419.74	0.0036
1431.31	0.00721
1442.88	0.00493
1454.46	0.00399
1466.03	0.004
1477.61	0.0036
1489.18	0.00296
1500.75	0.00442
1512.33	0.00858
1523.9	0.00535
1535.48	0.00234
1547.05	0.00181
1558.62	0.00183
1570.2	0.00252
1581.77	0.00395
1593.34	0.00434
1604.92	0.00614
1616.49	0.01146
1628.07	0.00745
1639.64	0.00322
1651.21	0.00191
1662.79	0.00147
1674.36	0.00141
1685.93	0.00169
1697.51	0.00216
1709.08	0.00361
1720.66	0.01074
1732.23	0.02052
1743.8	0.00597
1755.38	0.00247
1766.95	0.00163
1778.53	0.00128
1790.1	0.00107
1801.67	0.0008838
1813.25	0.0007995
1824.82	0.0007918
1836.39	0.0007471
1847.97	0.0007336
1859.54	0.0007412
1871.12	0.000835
1882.69	0.0007945
1894.26	0.0007394
1905.84	0.000715
1917.41	0.000686
1928.99	0.0007096
1940.56	0.0006574
1952.13	0.000688
1963.71	0.0006463
1975.28	0.0006581
1986.85	0.0006886
1998.43	0.0006266
2010	0.00065
2021.58	0.0006507
2033.15	0.0006218
2044.72	0.0006153
2056.3	0.000648
2067.87	0.0006549
2079.44	0.0006278
2091.02	0.000607
2102.59	0.0005678
2114.17	0.0005911
2125.74	0.0005534
2137.31	0.0005255
2148.89	0.0005041
2160.46	0.0005312
2172.04	0.0005872
2183.61	0.0005092
2195.18	0.0005227
2206.76	0.0005082
2218.33	0.0005371
2229.9	0.0005264
2241.48	0.0005354
2253.05	0.0005122
2264.63	0.0005453
2276.2	0.0005762
2287.77	0.0005668
2299.35	0.0005784
2310.92	0.0005599
2322.5	0.0005742
2334.07	0.0004671
2345.64	0.0005428
2357.22	0.0005555
2368.79	0.0005664
2380.36	0.0005981
2391.94	0.0006183
2403.51	0.0006053
2415.09	0.0006224
2426.66	0.0006262
2438.23	0.0005788
2449.81	0.0005559
2461.38	0.0005272
2472.96	0.0005233
2484.53	0.0005873
2496.1	0.000578
2507.68	0.0006472
2519.25	0.0006389
2530.82	0.0006505
2542.4	0.0007053
2553.97	0.0006988
2565.55	0.0007001
2577.12	0.0007147
2588.69	0.0007069
2600.27	0.0007525
2611.84	0.0007949
2623.41	0.0009435
2634.99	0.0009936
2646.56	0.00102
2658.14	0.001
2669.71	0.00108
2681.28	0.00113
2692.86	0.0012
2704.43	0.00134
2716.01	0.00138
2727.58	0.00152
2739.15	0.00156
2750.73	0.00171
2762.3	0.00198
2773.87	0.00231
2785.45	0.00288
2797.02	0.00398
2808.6	0.00479
2820.17	0.00475
2831.74	0.0042
2843.32	0.00375
2854.89	0.00358
2866.47	0.00413
2878.04	0.00578
2889.61	0.00621
2901.19	0.00589
2912.76	0.00642
2924.33	0.00767
2935.91	0.01007
2947.48	0.01116
2959.06	0.01116
2970.63	0.01412
2982.2	0.01059
2993.78	0.00542
3005.35	0.00324
3016.92	0.00227
3028.5	0.00207
3040.07	0.00207
3051.65	0.00162
3063.22	0.0014
3074.79	0.00144
3086.37	0.00134
3097.94	0.00116
3109.52	0.0009824
3121.09	0.0009199
3132.66	0.0008858
3144.24	0.0008316
3155.81	0.0008211
3167.38	0.0007374
3178.96	0.0007914
3190.53	0.0007242
3202.11	0.0008203
3213.68	0.0007317
3225.25	0.0006321
3236.83	0.0006923
3248.4	0.0005812
3259.98	0.0006139
3271.55	0.0005907
3283.12	0.0005947
3294.7	0.000523
3306.27	0.0005061
3317.84	0.0006087
3329.42	0.0007022
3340.99	0.000642
3352.57	0.0005432
3364.14	0.0006377
3375.71	0.0005758
3387.29	0.0007171
3398.86	0.0012
3410.43	0.00249
3422.01	0.00214
3433.58	0.00107
3445.16	0.0008504
3456.73	0.0007927
3468.3	0.0007039
3479.88	0.0007221
3491.45	0.00117
3503.03	0.0017
3514.6	0.00181
3526.17	0.00115
3537.75	0.0007101
3549.32	0.0006386
3560.89	0.0005883
3572.47	0.000513
3584.04	0.0005121
3595.62	0.0005008
3607.19	0.0006068
3618.76	0.000516
3630.34	0.0004316
3641.91	0.0004322
3653.49	0.0004603
3665.06	0.0004387
3676.63	0.0005076
3688.21	0.0005908
3699.78	0.0005591
3711.35	0.0005223
3722.93	0.0005427
3734.5	0.0004935
3746.08	0.0004515
3757.65	0.0004267
3769.22	0.0006829
3780.8	0.0006017
3792.37	0.0006105
3803.94	0.0004476
3815.52	0.0005913
3827.09	0.0005541
3838.67	0.0004707
3850.24	0.0005595
3861.81	0.0005532
3873.39	0.000582
3884.96	0.0006542
3896.54	0.0004775
3908.11	0.000516
3919.68	0.0006555
3931.26	0.0006543
3942.83	0.0005617
3954.4	0.0005462
3965.98	0.0006223
3977.55	0.0006662
3989.13	0.0006393
4000.7	0.0006512
