Infrared Spectrum: BENZALDEHYDE, m-NITRO-
Formula: C7 H5 N O3
CAS: 99-61-6
State: SOLID (1.0 mg / 650 mg KBr DISC)
Class: COBLENTZ III
Instrument: PERKIN-ELMER 21 (GRATING)
Instrument parameters: FILTER CHANGE AT 1100 CM^-^1
Sampling: TRANSMISSION
Resolution: 2
Origin: SOUTHERN RESEARCH INSTITUTE
1/CM	TRANSMITTANCE
610.734	0.9
619.869	0.8902
629.005	0.8651
638.14	0.8199
647.276	0.7646
656.411	0.7793
665.546	0.6398
674.682	0.5776
683.817	0.4466
692.953	0.8639
702.088	0.8345
711.223	0.7622
720.359	0.7191
729.494	0.481
738.63	0.4647
747.765	0.808
756.9	0.817
766.036	0.815
775.171	0.8069
784.307	0.7978
793.442	0.789
802.578	0.7465
811.713	0.5798
820.848	0.5823
829.984	0.5651
839.119	0.802
848.255	0.7973
857.39	0.7933
866.525	0.7868
875.661	0.779
884.796	0.7765
893.932	0.7532
903.067	0.7289
912.202	0.6728
921.338	0.6142
930.473	0.6297
939.609	0.5513
948.744	0.6614
957.879	0.798
967.015	0.7909
976.15	0.7789
985.286	0.767
994.421	0.7512
1003.56	0.7245
1012.69	0.704
1021.83	0.7695
1030.96	0.7511
1040.1	0.7363
1049.23	0.7235
1058.37	0.6907
1067.5	0.6368
1076.64	0.5618
1085.78	0.5463
1094.91	0.4587
1104.05	0.6764
1113.18	0.758
1122.32	0.7496
1131.45	0.74
1140.59	0.7347
1149.72	0.7138
1158.86	0.7049
1167.99	0.689
1177.13	0.6691
1186.26	0.6431
1195.4	0.599
1204.54	0.4572
1213.67	0.5313
1222.81	0.743
1231.94	0.7277
1241.08	0.7326
1250.21	0.7209
1259.35	0.7106
1268.48	0.6886
1277.62	0.6456
1286.75	0.634
1295.89	0.6357
1305.02	0.6201
1314.16	0.5715
1323.3	0.503
1332.43	0.5019
1341.57	0.4573
1350.7	0.3212
1359.84	0.1709
1368.97	0.3214
1378.11	0.5661
1387.24	0.661
1396.38	0.691
1405.51	0.598
1414.65	0.726
1423.79	0.723
1432.92	0.7135
1442.06	0.6865
1451.19	0.6356
1460.33	0.636
1469.46	0.5999
1478.6	0.5664
1487.73	0.6245
1496.87	0.6284
1506	0.6028
1515.14	0.5137
1524.27	0.4548
1533.41	0.295
1542.55	0.2404
1551.68	0.4166
1560.82	0.624
1569.95	0.748
1579.09	0.705
1588.22	0.6207
1597.36	0.6824
1606.49	0.5976
1615.63	0.5009
1624.76	0.5116
1633.9	0.7015
1643.03	0.704
1652.17	0.6993
1661.31	0.696
1670.44	0.677
1679.58	0.5923
1688.71	0.4808
1697.85	0.3599
1706.98	0.2859
1716.12	0.4194
1725.25	0.6397
1734.39	0.7231
1743.52	0.7579
1752.66	0.7558
1761.8	0.7753
1770.93	0.8099
1780.07	0.8217
1789.2	0.824
1798.34	0.824
1807.47	0.8205
1816.61	0.8141
1825.74	0.799
1834.88	0.799
1844.01	0.7937
1853.15	0.79
1862.28	0.7932
1871.42	0.7993
1880.56	0.804
1889.69	0.808
1898.83	0.802
1907.96	0.794
1917.1	0.791
1926.23	0.7901
1935.37	0.79
1944.5	0.79
1953.64	0.79
1962.77	0.79
1971.91	0.789
1981.04	0.7854
1990.18	0.781
1999.32	0.771
2008.45	0.7831
2017.59	0.7779
2026.72	0.7741
2035.86	0.777
2044.99	0.7765
2054.13	0.784
2063.26	0.7736
2072.4	0.776
2081.53	0.7736
2090.67	0.77
2099.81	0.77
2108.94	0.7691
2118.08	0.767
2127.21	0.7635
2136.35	0.7611
2145.48	0.7609
2154.62	0.764
2163.75	0.762
2172.89	0.759
2182.02	0.759
2191.16	0.7625
2200.29	0.7625
2209.43	0.759
2218.57	0.76
2227.7	0.7535
2236.84	0.75
2245.97	0.754
2255.11	0.745
2264.24	0.745
2273.38	0.744
2282.51	0.742
2291.65	0.74
2300.78	0.739
2309.92	0.739
2319.05	0.739
2328.19	0.739
2337.33	0.739
2346.46	0.7355
2355.6	0.726
2364.73	0.723
2373.87	0.7339
2383	0.737
2392.14	0.737
2401.27	0.7321
2410.41	0.728
2419.54	0.7246
2428.68	0.72
2437.82	0.72
2446.95	0.72
2456.09	0.7225
2465.22	0.7231
2474.36	0.723
2483.49	0.72
2492.63	0.719
2501.76	0.719
2510.9	0.7141
2520.03	0.7099
2529.17	0.72
2538.3	0.719
2547.44	0.71
2556.58	0.7145
2565.71	0.715
2574.85	0.7121
2583.98	0.708
2593.12	0.7069
2602.25	0.708
2611.39	0.7089
2620.52	0.7135
2629.66	0.713
2638.79	0.7071
2647.93	0.702
2657.06	0.702
2666.2	0.6991
2675.34	0.6955
2684.47	0.698
2693.61	0.695
2702.74	0.6901
2711.88	0.6885
2721.01	0.6875
2730.15	0.688
2739.28	0.6835
2748.42	0.677
2757.55	0.6745
2766.69	0.6721
2775.83	0.671
2784.96	0.671
2794.1	0.6705
2803.23	0.6605
2812.37	0.6591
2821.5	0.6555
2830.64	0.6475
2839.77	0.6395
2848.91	0.6321
2858.04	0.6171
2867.18	0.611
2876.31	0.604
2885.45	0.604
2894.59	0.6129
2903.72	0.6619
2912.86	0.671
2921.99	0.666
2931.13	0.6705
2940.26	0.674
2949.4	0.6735
2958.53	0.671
2967.67	0.671
2976.8	0.667
2985.94	0.6605
2995.07	0.664
3004.21	0.6631
3013.35	0.66
3022.48	0.655
3031.62	0.6456
3040.75	0.6411
3049.89	0.629
3059.02	0.6231
3068.16	0.616
3077.29	0.613
3086.43	0.6298
3095.56	0.639
3104.7	0.6395
3113.84	0.6589
3122.97	0.673
3132.11	0.673
3141.24	0.671
3150.38	0.6681
3159.51	0.664
3168.65	0.6631
3177.78	0.662
3186.92	0.661
3196.05	0.66
3205.19	0.658
3214.32	0.657
3223.46	0.656
3232.6	0.653
3241.73	0.653
3250.87	0.655
3260	0.649
3269.14	0.6355
3278.27	0.6319
3287.41	0.634
3296.54	0.6281
3305.68	0.625
3314.81	0.626
3323.95	0.6231
3333.08	0.6165
3342.22	0.6125
3351.36	0.6051
3360.49	0.5926
3369.63	0.5825
3378.76	0.5741
3387.9	0.5625
3397.03	0.5585
3406.17	0.5555
3415.3	0.5455
3424.44	0.542
3433.57	0.546
3442.71	0.5425
3451.85	0.541
3460.98	0.5439
3470.12	0.549
3479.25	0.551
3488.39	0.5515
3497.52	0.556
3506.66	0.5635
3515.79	0.571
3524.93	0.572
3534.06	0.574
3543.2	0.578
3552.33	0.585
3561.47	0.589
3570.61	0.593
3579.74	0.598
3588.88	0.6035
3598.01	0.611
3607.15	0.616
3616.28	0.6279
3625.42	0.63
3634.55	0.633
3643.69	0.635
3652.82	0.6395
3661.96	0.643
3671.09	0.643
3680.23	0.643
3689.37	0.644
3698.5	0.644
3707.64	0.645
3716.77	0.645
3725.91	0.647
3735.04	0.647
3744.18	0.6475
3753.31	0.64
3762.45	0.647
3771.58	0.648
3780.72	0.648
3789.86	0.647
3798.99	0.647
3808.13	0.647
3817.26	0.647
3826.4	0.6445
3835.53	0.6411
3844.67	0.647
3853.8	0.6409
3862.94	0.643
3872.07	0.64
3881.21	0.638
3890.34	0.636
3899.48	0.636
3908.62	0.636
3917.75	0.6435
3926.89	0.6485
3936.02	0.6475
3945.16	0.648
3954.29	0.6475
3963.43	0.6499
3972.56	0.652
3981.7	0.6501
3990.83	0.643
3999.97	0.6485
4009.1	0.6499
