Infrared Spectrum: 1,3-Dinitrobenzene
Formula: C 6 H 4 N 2 O 4
CAS: 99-65-0
State: gas
Instrument: HP-GC/MS/IRD
Origin: NIST Mass Spectrometry Data Center
1/CM	ABSORBANCE
550	0.0001344
562	7.68e-05
574	2.56e-05
586	0
598	7.68e-05
610	0.0001472
622	0.0001728
634	0.0004352
646	0.0010304
658	0.0013312
670	0.0011776
682	0.0012864
694	0.0028992
706	0.0094656
718	0.0174208
730	0.010336
742	0.0027136
754	0.0015296
766	0.0007296
778	0.0004352
790	0.0009856
802	0.0024704
814	0.0027072
826	0.0030656
838	0.0033344
850	0.0011264
862	0.0004992
874	0.0006208
886	0.0014976
898	0.0038528
910	0.0039552
922	0.002464
934	0.0008704
946	0.0003008
958	0.0003392
970	0.00032
982	0.0004288
994	0.0004864
1006	0.0003072
1018	0.0002624
1030	0.000384
1042	0.000768
1054	0.0029248
1066	0.0055744
1078	0.0036608
1090	0.002048
1102	0.0011776
1114	0.0005248
1126	0.000352
1138	0.0004416
1150	0.001088
1162	0.0016896
1174	0.000992
1186	0.0005056
1198	0.0003712
1210	0.000384
1222	0.000512
1234	0.0006848
1246	0.0006976
1258	0.0008704
1270	0.0019136
1282	0.0012096
1294	0.0012544
1306	0.0019264
1318	0.0030976
1330	0.0108544
1342	0.0442752
1354	0.0408128
1366	0.0097792
1378	0.0035072
1390	0.0024448
1402	0.0028096
1414	0.0016896
1426	0.0009856
1438	0.0008128
1450	0.0009536
1462	0.0015104
1474	0.0017856
1486	0.0023616
1498	0.0058432
1510	0.0082176
1522	0.0076224
1534	0.0151744
1546	0.0493248
1558	0.0589696
1570	0.0155456
1582	0.0073216
1594	0.010368
1606	0.0111424
1618	0.0065664
1630	0.003424
1642	0.0022528
1654	0.0016256
1666	0.0008896
1678	0.000512
1690	0.000448
1702	0.0004736
1714	0.0004864
1726	0.0004672
1738	0.0006528
1750	0.000448
1762	0.0001856
1774	0.0001408
1786	0.0001792
1798	0.000192
1810	0.000256
1822	0.0003072
1834	0.0004032
1846	0.00032
1858	0.0002816
1870	0.0002432
1882	0.0001664
1894	0.0002112
1906	0.0003264
1918	0.0004096
1930	0.0001984
1942	0.0001408
1954	0.0001984
1966	0.0002496
1978	0.00016
1990	8.32e-05
2002	7.04e-05
2014	6.4e-05
2026	5.12e-05
2038	8.96e-05
2050	8.96e-05
2062	5.76e-05
2074	4.48e-05
2086	3.84e-05
2098	3.2e-05
2110	3.84e-05
2122	2.56e-05
2134	2.56e-05
2146	3.2e-05
2158	5.12e-05
2170	4.48e-05
2182	3.2e-05
2194	5.12e-05
2206	2.56e-05
2218	1.92e-05
2230	1.28e-05
2242	2.56e-05
2254	2.56e-05
2266	3.2e-05
2278	6.4e-06
2290	6.4e-06
2302	5.12e-05
2314	8.96e-05
2326	0.0001024
2338	0.000128
2350	7.68e-05
2362	1.92e-05
2374	7.68e-05
2386	0.000128
2398	8.32e-05
2410	7.68e-05
2422	6.4e-05
2434	8.32e-05
2446	0.0001216
2458	0.0001472
2470	0.0001024
2482	8.32e-05
2494	0.000128
2506	0.0001088
2518	7.04e-05
2530	3.2e-05
2542	4.48e-05
2554	2.56e-05
2566	3.84e-05
2578	7.04e-05
2590	5.12e-05
2602	0.0001152
2614	0.0001088
2626	9.6e-05
2638	7.04e-05
2650	0.0001088
2662	0.0001216
2674	0.0002048
2686	0.0003584
2698	0.0003776
2710	0.000224
2722	0.000192
2734	0.0002176
2746	0.0002688
2758	0.0002816
2770	0.0002176
2782	0.0001728
2794	0.0001536
2806	0.00016
2818	0.0002112
2830	0.0003008
2842	0.0003008
2854	0.000384
2866	0.0004736
2878	0.0008128
2890	0.0012608
2902	0.0010944
2914	0.0005568
2926	0.0003712
2938	0.0004352
2950	0.0003776
2962	0.0002496
2974	0.0001984
2986	0.0001792
2998	0.000128
3010	6.4e-05
3022	0.0001088
3034	0.0001344
3046	0.0001408
3058	0.000192
3070	0.0005376
3082	0.0014912
3094	0.0024704
3106	0.0023936
3118	0.0016512
3130	0.0006784
3142	0.0001664
3154	0.0001472
3166	8.96e-05
3178	0.0001216
3190	0.0001472
3202	0.0001216
3214	0.0001216
3226	7.04e-05
3238	3.2e-05
3250	1.92e-05
3262	7.68e-05
3274	7.04e-05
3286	5.12e-05
3298	5.12e-05
3310	3.84e-05
3322	3.2e-05
3334	2.56e-05
3346	2.56e-05
3358	0
3370	7.68e-05
3382	8.32e-05
3394	7.68e-05
3406	8.96e-05
3418	6.4e-05
3430	6.4e-05
3442	5.76e-05
3454	0.0001024
3466	9.6e-05
3478	9.6e-05
3490	7.04e-05
3502	0.0001152
3514	5.76e-05
3526	7.04e-05
3538	5.12e-05
3550	9.6e-05
3562	7.68e-05
3574	8.32e-05
3586	4.48e-05
3598	0.0001344
3610	7.68e-05
3622	0.0001024
3634	9.6e-05
3646	7.04e-05
3658	7.68e-05
3670	0.0001152
3682	7.68e-05
3694	0.0001472
3706	0.0001216
3718	0.0001152
3730	0.0001216
3742	0.0001088
3754	0.0001472
3766	0.0001344
3778	0.0001472
3790	0.000128
3802	0.0001728
3814	0.0001216
3826	0.0001216
3838	0.0001408
