Infrared Spectrum: Isophthaloyl dichloride
Formula: C 8 H 4 Cl 2 O 2
CAS: 99-63-8
State: gas
Origin: EPA-IR VAPOR PHASE LIBRARY
1/CM	ABSORBANCE
549.8	0.002863
559.445	0.002483
569.09	0.002253
578.734	0.002533
588.379	0.003623
598.024	0.005663
607.669	0.006293
617.313	0.007943
626.958	0.019333
636.603	0.031363
646.248	0.046563
655.893	0.040073
665.537	0.040023
675.182	0.073633
684.827	0.193143
694.472	0.286893
704.116	0.158533
713.761	0.047813
723.406	0.036953
733.051	0.052043
742.695	0.031123
752.34	0.010983
761.985	0.008833
771.63	0.007933
781.275	0.008053
790.919	0.013873
800.564	0.028693
810.209	0.034743
819.854	0.025293
829.498	0.029253
839.143	0.044803
848.788	0.081013
858.433	0.128843
868.078	0.140753
877.722	0.104143
887.367	0.063933
897.012	0.042703
906.657	0.032903
916.301	0.031053
925.946	0.031003
935.591	0.032473
945.236	0.043683
954.88	0.060353
964.525	0.126843
974.17	0.176643
983.815	0.114803
993.46	0.152323
1003.1	0.037113
1012.75	0.012813
1022.39	0.009093
1032.04	0.007153
1041.68	0.006713
1051.33	0.007363
1060.97	0.007713
1070.62	0.009473
1080.26	0.011873
1089.91	0.013273
1099.55	0.018683
1109.2	0.031203
1118.84	0.040613
1128.49	0.083553
1138.13	0.214703
1147.78	0.278703
1157.42	0.112413
1167.07	0.035703
1176.71	0.023853
1186.36	0.019813
1196	0.020993
1205.64	0.029563
1215.29	0.048303
1224.93	0.083003
1234.58	0.096823
1244.22	0.052073
1253.87	0.023023
1263.51	0.017233
1273.16	0.013953
1282.8	0.012423
1292.45	0.009993
1302.09	0.008553
1311.74	0.009623
1321.38	0.005563
1331.03	0.005433
1340.67	0.004803
1350.32	0.003443
1359.96	0.003133
1369.61	0.003103
1379.25	0.002983
1388.9	0.003773
1398.54	0.004853
1408.18	0.008233
1417.83	0.019123
1427.47	0.028473
1437.12	0.011983
1446.76	0.003713
1456.41	0.002763
1466.05	0.003353
1475.7	0.005423
1485.34	0.004923
1494.99	0.003043
1504.63	0.002633
1514.28	0.002373
1523.92	0.002113
1533.57	0.002133
1543.21	0.002443
1552.86	0.002923
1562.5	0.004523
1572.15	0.008363
1581.79	0.014853
1591.44	0.021573
1601.08	0.019883
1610.73	0.008843
1620.37	0.005193
1630.01	0.004443
1639.66	0.003683
1649.3	0.004023
1658.95	0.005253
1668.59	0.006493
1678.24	0.007423
1687.88	0.007743
1697.53	0.008313
1707.17	0.010573
1716.82	0.015033
1726.46	0.022813
1736.11	0.039483
1745.75	0.060093
1755.4	0.095963
1765.04	0.234673
1774.69	0.391433
1784.33	0.368133
1793.98	0.204783
1803.62	0.094473
1813.27	0.073313
1822.91	0.057883
1832.55	0.035843
1842.2	0.022823
1851.84	0.015013
1861.49	0.010243
1871.13	0.008093
1880.78	0.006623
1890.42	0.005903
1900.07	0.004743
1909.71	0.004433
1919.36	0.005383
1929	0.005223
1938.65	0.003333
1948.29	0.002283
1957.94	0.002393
1967.58	0.002923
1977.23	0.002903
1986.87	0.002293
1996.52	0.001983
2006.16	0.001743
2015.81	0.001373
2025.45	0.0011351
2035.1	0.0009061
2044.74	0.000735
2054.38	0.0007804
2064.03	0.0008589
2073.67	0.0009432
2083.32	0.0009718
2092.96	0.0008672
2102.61	0.0008433
2112.25	0.0008679
2121.9	0.0008765
2131.54	0.0009371
2141.19	0.0010126
2150.83	0.0010058
2160.48	0.0010686
2170.12	0.0012146
2179.77	0.001483
2189.41	0.001583
2199.06	0.001623
2208.7	0.001573
2218.35	0.001195
2227.99	0.0009903
2237.64	0.0006569
2247.28	0.0006052
2256.92	0.0006192
2266.57	0.0006852
2276.21	0.0007319
2285.86	0.0007954
2295.5	0.0006577
2305.15	0.0005095
2314.79	0.00041858
2324.44	0.0004973
2334.08	0.0007561
2343.73	0.001157
2353.37	0.001603
2363.02	0.001843
2372.66	0.001943
2382.31	0.001673
2391.95	0.0010551
2401.6	0.0008467
2411.24	0.0006356
2420.89	0.0007445
2430.53	0.0007443
2440.18	0.0006483
2449.82	0.0007033
2459.47	0.0006695
2469.11	0.00057
2478.75	0.0005392
2488.4	0.000458
2498.04	0.0002535
2507.69	0.00036697
2517.33	0.0004805
2526.98	0.0005166
2536.62	0.0005672
2546.27	0.00035694
2555.91	0.0005144
2565.56	0.0006599
2575.2	0.0007109
2584.85	0.0007454
2594.49	0.0007917
2604.14	0.0005568
2613.78	0.0004648
2623.43	0.0005111
2633.07	0.0005653
2642.72	0.0005267
2652.36	0.0005929
2662.01	0.0004959
2671.65	0.00036411
2681.29	0.0003176
2690.94	0.0004474
2700.58	0.0007103
2710.23	0.0010456
2719.87	0.0010236
2729.52	0.0009446
2739.16	0.0007706
2748.81	0.0007459
2758.45	0.0006431
2768.1	0.0004826
2777.74	0.0006617
2787.39	0.0006108
2797.03	0.0009027
2806.68	0.0010834
2816.32	0.001633
2825.97	0.001493
2835.61	0.0012149
2845.26	0.0006281
2854.9	0.0004852
2864.55	0.00035913
2874.19	0.0004551
2883.84	0.00039365
2893.48	0.00035859
2903.12	0.00036185
2912.77	0.00039002
2922.41	0.0002946
2932.06	0.0005476
2941.7	0.0005121
2951.35	0.0004969
2960.99	0.0004434
2970.64	0.00034666
2980.28	0.000518
2989.93	0.000431
2999.57	0.0007603
3009.22	0.0008241
3018.86	0.0007556
3028.51	0.0007414
3038.15	0.0009255
3047.8	0.000929
3057.44	0.0012389
3067.09	0.003333
3076.73	0.009173
3086.38	0.011303
3096.02	0.004743
3105.67	0.0012317
3115.31	0.0005756
3124.95	0.0003115
3134.6	0.0003101
3144.24	0.00041761
3153.89	0.00035108
3163.53	0.0003014
3173.18	0.0006522
3182.82	0.0007014
3192.47	0.0007356
3202.11	0.0005215
3211.76	0.0005862
3221.4	0.0005503
3231.05	0.00017
3240.69	0.000112
3250.34	0.000189
3259.98	0.0002394
3269.63	8.2e-05
3279.27	1.1e-05
3288.92	0.000159
3298.56	0.000215
3308.21	3.7e-05
3317.85	0.00033768
3327.49	0.000167
3337.14	0.000168
3346.78	0.00033799
3356.43	0.00033377
3366.07	0.0007086
3375.72	0.0005952
3385.36	0.0008157
3395.01	0.0005759
3404.65	0.00033424
3414.3	0.0004637
3423.94	0.0004353
3433.59	0.000491
3443.23	0.0006068
3452.88	0.0006537
3462.52	0.0008965
3472.17	0.0009949
3481.81	0.0013041
3491.46	0.001333
3501.1	0.001863
3510.75	0.002963
3520.39	0.004563
3530.04	0.006203
3539.68	0.006223
3549.32	0.003943
3558.97	0.003153
3568.61	0.002403
3578.26	0.001953
3587.9	0.001483
3597.55	0.0010213
3607.19	0.0008877
3616.84	0.0008034
3626.48	0.0006316
3636.13	0.0007004
3645.77	0.0005813
3655.42	0.0005039
3665.06	0.00041923
3674.71	0.000498
3684.35	0.0007053
3694	0.0006723
3703.64	0.0004858
3713.29	0.0002389
3722.93	0.000323116
3732.58	0.0005899
3742.22	0.00033689
3751.86	0.00041148
3761.51	0.0004999
3771.15	0.000429
3780.8	0.0005865
3790.44	0.0002677
3800.09	9.1e-05
3809.73	0.0002817
3819.38	0.00037009
3829.02	0.0002951
3838.67	0.000132
3848.31	0.0004584
3857.96	0.000325077
3867.6	0.0004947
3877.25	0.00035745
3886.89	0.000194
3896.54	0.000223
3906.18	0.0004892
3915.83	0.0003048
3925.47	0.00042087
3935.12	0.0006513
3944.76	0.00034329
3954.41	0.0004353
3964.05	8.2e-05
3973.69	0.0004817
3983.34	0.0003038
3992.98	0.0002426
