Infrared Spectrum: Methyl 4-hydroxybenzoate
Formula: C 8 H 8 O 3
CAS: 99-76-3
State: gas
Instrument: HP-GC/MS/IRD
Origin: NIST Mass Spectrometry Data Center
1/CM	ABSORBANCE
550	0.0016077
562	0.0015611
574	0.0012582
586	0.0010951
598	0.0028659
610	0.0117199
622	0.0110209
634	0.0024465
646	0.0015611
658	0.0007456
670	0.0016543
682	0.0045901
694	0.0050095
706	0.0024232
718	0.0005359
730	9.32e-05
742	0.0018174
754	0.0086443
766	0.018873
778	0.0144227
790	0.00699
802	0.0046367
814	0.0042872
826	0.0072929
838	0.0186866
850	0.0182439
862	0.0069667
874	0.0017009
886	0.0005825
898	0.0003961
910	0.0003029
922	0.0006291
934	0.0012116
946	0.0013281
958	0.0027494
970	0.0043338
982	0.0030989
994	0.0017475
1006	0.0038445
1018	0.0051959
1030	0.0020504
1042	0.0024465
1054	0.0039144
1066	0.0079453
1078	0.0210399
1090	0.0509571
1102	0.0744901
1114	0.0654497
1126	0.0374897
1138	0.0245116
1150	0.042173
1162	0.12596
1174	0.0904506
1186	0.0783346
1198	0.0611625
1210	0.0216224
1222	0.0178478
1234	0.0229039
1246	0.0474621
1258	0.148538
1270	0.233
1282	0.148794
1294	0.0544987
1306	0.0323171
1318	0.0240456
1330	0.01864
1342	0.0090637
1354	0.0053124
1366	0.0042639
1378	0.0030989
1390	0.0031688
1402	0.005359
1414	0.0096462
1426	0.0192691
1438	0.0367441
1450	0.01631
1462	0.0072696
1474	0.005126
1486	0.0043804
1498	0.0101588
1510	0.0299172
1522	0.0162867
1534	0.003961
1546	0.0033086
1558	0.0051959
1570	0.0101588
1582	0.0219719
1594	0.041008
1606	0.0562229
1618	0.0419633
1630	0.0156809
1642	0.0070832
1654	0.0049163
1666	0.0041241
1678	0.0044037
1690	0.0061512
1702	0.0078521
1714	0.0149819
1726	0.0482776
1738	0.125191
1750	0.112189
1762	0.03029
1774	0.0083181
1786	0.0044736
1798	0.0040542
1810	0.002563
1822	0.0013048
1834	0.0008388
1846	0.0005359
1858	0.0005592
1870	0.0010485
1882	0.0017708
1894	0.0022368
1906	0.0023533
1918	0.0022368
1930	0.0018407
1942	0.0013747
1954	0.0007922
1966	0.0005126
1978	0.0004194
1990	0.000466
2002	0.0006291
2014	0.0005825
2026	0.0006757
2038	0.0008388
2050	0.001165
2062	0.0016776
2074	0.0017475
2086	0.0014446
2098	0.001398
2110	0.0011417
2122	0.0006524
2134	0.0003262
2146	9.32e-05
2158	6.99e-05
2170	2.33e-05
2182	2.33e-05
2194	2.33e-05
2206	2.33e-05
2218	0.0001165
2230	0.000233
2242	0.0003262
2254	0.0003728
2266	0.0003961
2278	0.0003961
2290	0.0003495
2302	0.0003728
2314	0.0003728
2326	0.0003961
2338	0.0003495
2350	0.0003961
2362	0.0004194
2374	0.000466
2386	0.0005359
2398	0.0006291
2410	0.0008155
2422	0.0010951
2434	0.0011883
2446	0.0012116
2458	0.0009786
2470	0.000466
2482	0.0003728
2494	0.0003495
2506	0.0005359
2518	0.0008388
2530	0.0008155
2542	0.0005126
2554	0.0003961
2566	0.0003262
2578	0.0003961
2590	0.0005126
2602	0.0004427
2614	0.0003961
2626	0.0003728
2638	0.0003029
2650	0.0003728
2662	0.0003495
2674	0.0001398
2686	0.0001165
2698	9.32e-05
2710	6.99e-05
2722	4.66e-05
2734	4.66e-05
2746	4.66e-05
2758	0.0002097
2770	0.0003728
2782	0.0003495
2794	0.0003029
2806	0.0003029
2818	0.0004893
2830	0.0010718
2842	0.0030989
2854	0.003961
2866	0.0017941
2878	0.0017708
2890	0.0025164
2902	0.0035183
2914	0.0044503
2926	0.0044037
2938	0.0049629
2950	0.0124189
2962	0.022135
2974	0.0091103
2986	0.0051959
2998	0.0066172
3010	0.0078521
3022	0.007922
3034	0.0082016
3046	0.0071997
3058	0.0041241
3070	0.0042173
3082	0.0048464
3094	0.0029591
3106	0.0020271
3118	0.0015145
3130	0.0009553
3142	0.0006524
3154	0.0004427
3166	0.0004194
3178	0.0004427
3190	0.0004427
3202	0.0003029
3214	0.0002097
3226	0.0001631
3238	9.32e-05
3250	6.99e-05
3262	2.33e-05
3274	2.33e-05
3286	4.66e-05
3298	0.0001864
3310	0.0003495
3322	0.0004427
3334	0.0004893
3346	0.0005359
3358	0.0005126
3370	0.000466
3382	0.0002563
3394	0.0002796
3406	0.000233
3418	0.0002097
3430	0.0002563
3442	0.0004427
3454	0.0010019
3466	0.0012815
3478	0.0010951
3490	0.0006524
3502	0.0004194
3514	0.0002796
3526	0.000233
3538	0.000233
3550	0.0001864
3562	0.0002796
3574	0.0003029
3586	0.0004893
3598	0.0006291
3610	0.0011184
3622	0.0030523
3634	0.0154945
3646	0.0446894
3658	0.022601
3670	0.003262
3682	0.0008621
3694	0.0005126
3706	0.0004893
3718	0.0003262
3730	0.0003029
3742	0.0002796
3754	0.0002796
3766	0.0002097
3778	0.0001631
3790	0.0002097
3802	0.0003029
3814	0.0002097
3826	0.000233
3838	0.0003029
