Infrared Spectrum: P-TOLUIC ACID, METHYL ESTER
Formula: C9 H10 O2
CAS: 99-75-2
Class: COBLENTZ
Instrument: Not specified, most likely a prism, grating, or hybrid spectrometer.
Sampling: TRANSMISSION
Path length: SMEAR
Resolution: 4
Origin: TENNESSEE EASTMAN COMPANY, RESEARCH LABORATORIES
MICROMETERS	TRANSMITTANCE
2.006	0.983
2.04576	0.983
2.08552	0.983
2.12528	0.979
2.16504	0.978
2.2048	0.974
2.24456	0.961
2.28432	0.961
2.32408	0.963
2.36384	0.963
2.4036	0.963
2.44336	0.963
2.48312	0.963
2.52288	0.966
2.56264	0.968
2.6024	0.973
2.64216	0.968
2.68192	0.968
2.72168	0.968
2.76144	0.959
2.8012	0.959
2.84096	0.956
2.88072	0.958
2.92048	0.939
2.96024	0.948
3	0.958
3.03976	0.958
3.07952	0.958
3.11928	0.956
3.15904	0.951
3.1988	0.934
3.23856	0.899
3.27832	0.816
3.31808	0.729
3.35784	0.724
3.3976	0.687
3.43736	0.769
3.47712	0.829
3.51688	0.866
3.55664	0.934
3.5964	0.944
3.63616	0.951
3.67592	0.951
3.71568	0.953
3.75544	0.959
3.7952	0.961
3.83496	0.956
3.87472	0.946
3.91448	0.944
3.95424	0.943
3.994	0.948
4.03376	0.954
4.07352	0.954
4.11328	0.954
4.15304	0.954
4.1928	0.944
4.23256	0.979
4.27232	0.966
4.31208	0.961
4.35184	0.934
4.3916	0.943
4.43136	0.946
4.47112	0.946
4.51088	0.948
4.55064	0.954
4.5904	0.954
4.63016	0.951
4.66992	0.943
4.70968	0.933
4.74944	0.931
4.7892	0.924
4.82896	0.924
4.86872	0.931
4.90848	0.933
4.94824	0.934
4.988	0.939
5.02776	0.931
5.06752	0.931
5.10728	0.911
5.14704	0.863
5.1868	0.866
5.22656	0.901
5.26632	0.911
5.30608	0.898
5.34584	0.916
5.3856	0.921
5.42536	0.904
5.46512	0.903
5.50488	0.883
5.54464	0.868
5.5844	0.859
5.62416	0.863
5.66392	0.814
5.70368	0.736
5.74344	0.383
5.7832	0.025
5.82296	0.048
5.86272	0.452
5.90248	0.686
5.94224	0.702
5.982	0.746
6.02176	0.806
6.06152	0.831
6.10128	0.814
6.14104	0.726
6.1808	0.529
6.22056	0.455
6.26032	0.699
6.30008	0.786
6.33984	0.722
6.3796	0.838
6.41936	0.848
6.45912	0.869
6.49888	0.854
6.53864	0.853
6.5784	0.754
6.61816	0.752
6.65792	0.821
6.69768	0.803
6.73744	0.782
6.7772	0.689
6.81696	0.604
6.85672	0.487
6.89648	0.383
6.93624	0.23
6.976	0.447
7.01576	0.671
7.05552	0.682
7.09528	0.627
7.13504	0.754
7.1748	0.796
7.21456	0.794
7.25431	0.769
7.29407	0.797
7.33383	0.811
7.37359	0.814
7.41335	0.814
7.45311	0.797
7.49287	0.719
7.53263	0.634
7.57239	0.537
7.61215	0.387
7.65191	0.404
7.69167	0.273
7.73143	0.131
7.77119	0.063
7.81095	0.031
7.85071	0.045
7.89047	0.158
7.93023	0.323
7.96999	0.402
8.00975	0.484
8.04951	0.574
8.08927	0.692
8.12903	0.749
8.16879	0.771
8.20855	0.744
8.24831	0.604
8.28807	0.589
8.32783	0.542
8.36759	0.415
8.40735	0.414
8.44711	0.19
8.48687	0.402
8.52663	0.632
8.56639	0.726
8.60615	0.752
8.64591	0.761
8.68567	0.759
8.72543	0.746
8.76519	0.722
8.80495	0.674
8.84471	0.557
8.88447	0.365
8.92423	0.242
8.96399	0.148
9.00375	0.081
9.04351	0.121
9.08327	0.288
9.12303	0.479
9.16279	0.632
9.20255	0.722
9.24231	0.766
9.28207	0.789
9.32183	0.813
9.36159	0.819
9.40135	0.818
9.44111	0.819
9.48087	0.808
9.52063	0.787
9.56039	0.749
9.60015	0.749
9.63991	0.759
9.67967	0.772
9.71943	0.689
9.75919	0.434
9.79895	0.621
9.83871	0.791
9.87847	0.833
9.91823	0.853
9.95799	0.854
9.99775	0.851
10.0375	0.838
10.0773	0.831
10.117	0.826
10.1568	0.819
10.1966	0.799
10.2363	0.754
10.2761	0.699
10.3158	0.654
10.3556	0.656
10.3954	0.702
10.4351	0.746
10.4749	0.786
10.5146	0.816
10.5544	0.834
10.5942	0.846
10.6339	0.851
10.6737	0.856
10.7134	0.861
10.7532	0.864
10.793	0.866
10.8327	0.864
10.8725	0.871
10.9122	0.871
10.952	0.871
10.9918	0.871
11.0315	0.871
11.0713	0.871
11.111	0.873
11.1508	0.873
11.1906	0.871
11.2303	0.873
11.2701	0.873
11.3098	0.873
11.3496	0.873
11.3894	0.871
11.4291	0.871
11.4689	0.869
11.5086	0.854
11.5484	0.864
11.5882	0.856
11.6279	0.843
11.6677	0.816
11.7074	0.766
11.7472	0.712
11.787	0.636
11.8267	0.562
11.8665	0.524
11.9062	0.547
11.946	0.562
11.9858	0.587
12.0255	0.722
12.0653	0.806
12.105	0.821
12.1448	0.828
12.1846	0.833
12.2243	0.831
12.2641	0.833
12.3038	0.846
12.3436	0.861
12.3834	0.869
12.4231	0.869
12.4629	0.873
12.5026	0.874
12.5424	0.874
12.5821	0.874
12.6219	0.869
12.6617	0.846
12.7014	0.809
12.7412	0.766
12.7809	0.764
12.8207	0.792
12.8605	0.804
12.9002	0.808
12.94	0.803
12.9797	0.771
13.0195	0.704
13.0593	0.579
13.099	0.338
13.1388	0.18
13.1785	0.106
13.2183	0.091
13.2581	0.181
13.2978	0.457
13.3376	0.611
13.3773	0.704
13.4171	0.766
13.4569	0.797
13.4966	0.826
13.5364	0.839
13.5761	0.849
13.6159	0.859
13.6557	0.863
13.6954	0.864
13.7352	0.868
13.7749	0.869
13.8147	0.869
13.8545	0.869
13.8942	0.871
13.934	0.869
13.9737	0.869
14.0135	0.866
14.0533	0.864
14.093	0.864
14.1328	0.864
14.1725	0.861
14.2123	0.856
14.2521	0.849
14.2918	0.834
14.3316	0.806
14.3713	0.752
14.4111	0.691
14.4509	0.614
14.4906	0.58
14.5304	0.602
14.5701	0.666
14.6099	0.734
14.6497	0.772
14.6894	0.792
14.7292	0.816
14.7689	0.819
14.8087	0.824
14.8485	0.824
14.8882	0.823
14.928	0.821
14.9677	0.821
15.0075	0.821
15.0473	0.823
15.087	0.821
15.1268	0.821
15.1665	0.819
15.2063	0.818
15.2461	0.816
15.2858	0.814
15.3256	0.811
15.3653	0.808
15.4051	0.808
15.4449	0.799
15.4846	0.792
15.5244	0.789
15.5641	0.782
15.6039	0.774
15.6437	0.761
15.6834	0.751
15.7232	0.746
15.7629	0.741
15.8027	0.741
15.8425	0.742
15.8822	0.744
15.922	0.742
15.9617	0.744
