Infrared Spectrum: .alpha.-Terpine
Formula: C 10 H 16
CAS: 99-86-5
State: gas
Instrument: HP-GC/MS/IRD
Origin: NIST Mass Spectrometry Data Center
1/CM	ABSORBANCE
550	0.0007718
562	0.0008772
574	0.0011288
586	0.0007208
598	0.000306
610	9.18e-05
622	6.12e-05
634	1.02e-05
646	7.14e-05
658	0.000187
670	0.0005712
682	0.0005542
694	0.0002618
706	9.52e-05
718	9.18e-05
730	0.0001224
742	0.0001496
754	0.000221
766	0.0002584
778	0.0002006
790	0.0003774
802	0.0013056
814	0.0046036
826	0.0068068
838	0.0032402
850	0.0008296
862	0.0006154
874	0.0006324
886	0.0003978
898	0.0002788
910	0.0001972
922	0.0002142
934	0.0002652
946	0.0001938
958	0.000221
970	0.0002652
982	0.0003264
994	0.0003468
1006	0.0005202
1018	0.000918
1030	0.000918
1042	0.0011526
1054	0.0014654
1066	0.0011288
1078	0.0009928
1090	0.000901
1102	0.0005984
1114	0.0004386
1126	0.0003502
1138	0.000425
1150	0.0009758
1162	0.0014212
1174	0.0011084
1186	0.0009384
1198	0.0010472
1210	0.00102
1222	0.0009894
1234	0.0011016
1246	0.0008602
1258	0.0006834
1270	0.0010472
1282	0.0019992
1294	0.001904
1306	0.0016456
1318	0.0019856
1330	0.0017748
1342	0.0011084
1354	0.0017544
1366	0.0032096
1378	0.0033592
1390	0.0025534
1402	0.0014552
1414	0.0015742
1426	0.0026622
1438	0.0035496
1450	0.0041072
1462	0.0043486
1474	0.0031926
1486	0.0014892
1498	0.0007276
1510	0.0005032
1522	0.000357
1534	0.0003026
1546	0.0002822
1558	0.0002448
1570	0.0002448
1582	0.000306
1594	0.0004318
1606	0.0004794
1618	0.0004318
1630	0.0005576
1642	0.0012478
1654	0.002074
1666	0.00119
1678	0.0003468
1690	0.0002176
1702	0.0001666
1714	0.0001258
1726	0.0001564
1738	0.0002618
1750	0.0004318
1762	0.000425
1774	0.000238
1786	0.0001326
1798	9.52e-05
1810	7.82e-05
1822	9.18e-05
1834	7.48e-05
1846	5.44e-05
1858	7.82e-05
1870	6.46e-05
1882	4.42e-05
1894	6.8e-05
1906	6.12e-05
1918	2.38e-05
1930	3.74e-05
1942	6.12e-05
1954	7.48e-05
1966	8.16e-05
1978	5.78e-05
1990	5.1e-05
2002	3.74e-05
2014	2.04e-05
2026	4.08e-05
2038	2.72e-05
2050	1.36e-05
2062	3.4e-05
2074	3.06e-05
2086	3.4e-06
2098	2.72e-05
2110	0
2122	4.76e-05
2134	6.12e-05
2146	6.46e-05
2158	2.04e-05
2170	1.36e-05
2182	4.76e-05
2194	5.1e-05
2206	1.7e-05
2218	3.4e-05
2230	6.12e-05
2242	6.12e-05
2254	6.12e-05
2266	5.1e-05
2278	4.76e-05
2290	6.8e-06
2302	1.36e-05
2314	3.74e-05
2326	2.38e-05
2338	3.4e-06
2350	6.12e-05
2362	3.4e-05
2374	0.000102
2386	0.0001258
2398	0.0001258
2410	0.0001088
2422	5.44e-05
2434	9.18e-05
2446	0.0001088
2458	0.000153
2470	0.0001428
2482	0.000119
2494	8.84e-05
2506	9.52e-05
2518	0.0001156
2530	9.86e-05
2542	0.0001258
2554	0.0001394
2566	0.0002006
2578	0.0002584
2590	0.000272
2602	0.0002482
2614	0.0002822
2626	0.000255
2638	0.0002312
2650	0.000255
2662	0.0003094
2674	0.0003502
2686	0.0003604
2698	0.0004012
2710	0.0004828
2722	0.0007786
2734	0.0010166
2746	0.0009418
2758	0.0008432
2770	0.000901
2782	0.0011866
2794	0.0018156
2806	0.0030158
2818	0.0059228
2830	0.0090644
2842	0.0078812
2854	0.0090406
2866	0.0151776
2878	0.0190094
2890	0.0164186
2902	0.0137972
2914	0.0190094
2926	0.0266084
2938	0.0250444
2950	0.0212568
2962	0.0311066
2974	0.0302906
2986	0.0123488
2998	0.0063614
3010	0.0055318
3022	0.0057596
3034	0.0073236
3046	0.006885
3058	0.0044438
3070	0.0024208
3082	0.0014178
3094	0.0010472
3106	0.000884
3118	0.0007072
3130	0.0005814
3142	0.0005304
3154	0.000459
3166	0.0004658
3178	0.000442
3190	0.0003876
3202	0.0003604
3214	0.000289
3226	0.0001734
3238	0.0001564
3250	0.000204
3262	0.0001224
3274	0.0001224
3286	0.0001462
3298	0.0001088
3310	0.0001122
3322	0.0001428
3334	6.12e-05
3346	8.5e-05
3358	5.1e-05
3370	0.0001054
3382	0.0001224
3394	7.82e-05
3406	3.4e-05
3418	9.18e-05
3430	6.8e-05
3442	6.46e-05
3454	8.16e-05
3466	3.4e-05
3478	8.84e-05
3490	4.42e-05
3502	7.14e-05
3514	1.7e-05
3526	4.42e-05
3538	4.42e-05
3550	4.76e-05
3562	6.8e-05
3574	4.76e-05
3586	6.12e-05
3598	7.14e-05
3610	4.08e-05
3622	4.76e-05
3634	5.1e-05
3646	6.8e-05
3658	4.08e-05
3670	2.04e-05
3682	3.4e-05
3694	1.7e-05
3706	6.8e-06
3718	0.0001496
3730	2.38e-05
3742	6.46e-05
3754	0.0001122
3766	9.86e-05
3778	5.1e-05
3790	9.86e-05
3802	0.0001462
3814	6.8e-05
3826	0.0001292
3838	0.00017
