Infrared Spectrum: 4-Nitrophenacyl bromide
Formula: C 8 H 6 Br N O 3
CAS: 99-81-0
State: gas
Origin: EPA-IR VAPOR PHASE LIBRARY
1/CM	ABSORBANCE
549.8	0.003899
559.445	0.002249
569.09	0.0013398
578.734	0.001659
588.379	0.002019
598.024	0.002419
607.669	0.004269
617.313	0.010299
626.958	0.012959
636.603	0.006969
646.248	0.005819
655.893	0.005559
665.537	0.004319
675.182	0.005259
684.827	0.004989
694.472	0.004699
704.116	0.005749
713.761	0.010279
723.406	0.012029
733.051	0.012199
742.695	0.018309
752.34	0.007429
761.985	0.004239
771.63	0.003409
781.275	0.002449
790.919	0.002209
800.564	0.002729
810.209	0.002959
819.854	0.003389
829.498	0.004859
839.143	0.009409
848.788	0.031249
858.433	0.036319
868.078	0.012619
877.722	0.004499
887.367	0.002989
897.012	0.002299
906.657	0.001549
916.301	0.0011667
925.946	0.0011721
935.591	0.0010155
945.236	0.0011005
954.88	0.001399
964.525	0.002009
974.17	0.003449
983.815	0.006489
993.46	0.009699
1003.1	0.017119
1012.75	0.027689
1022.39	0.010129
1032.04	0.003569
1041.68	0.002119
1051.33	0.001619
1060.97	0.0010502
1070.62	0.001093
1080.26	0.002309
1089.91	0.002219
1099.55	0.003929
1109.2	0.005219
1118.84	0.004849
1128.49	0.004109
1138.13	0.002699
1147.78	0.002629
1157.42	0.002709
1167.07	0.004769
1176.71	0.009779
1186.36	0.013309
1196	0.011779
1205.64	0.012399
1215.29	0.008819
1224.93	0.011549
1234.58	0.013609
1244.22	0.018849
1253.87	0.034309
1263.51	0.063329
1273.16	0.061109
1282.8	0.027389
1292.45	0.019139
1302.09	0.017359
1311.74	0.014109
1321.38	0.012739
1331.03	0.021299
1340.67	0.054979
1350.32	0.071759
1359.96	0.036249
1369.61	0.017039
1379.25	0.010629
1388.9	0.010629
1398.54	0.010699
1408.18	0.009619
1417.83	0.010229
1427.47	0.015709
1437.12	0.008019
1446.76	0.003489
1456.41	0.002899
1466.05	0.003119
1475.7	0.004099
1485.34	0.006129
1494.99	0.008279
1504.63	0.010379
1514.28	0.014899
1523.92	0.023789
1533.57	0.049449
1543.21	0.084959
1552.86	0.058959
1562.5	0.023789
1572.15	0.016569
1581.79	0.015469
1591.44	0.020409
1601.08	0.026439
1610.73	0.019619
1620.37	0.009059
1630.01	0.005419
1639.66	0.004309
1649.3	0.003799
1658.95	0.003669
1668.59	0.004489
1678.24	0.006489
1687.88	0.013119
1697.53	0.038919
1707.17	0.068369
1716.82	0.040999
1726.46	0.017129
1736.11	0.008439
1745.75	0.004119
1755.4	0.002679
1765.04	0.002089
1774.69	0.001969
1784.33	0.002099
1793.98	0.002229
1803.62	0.002149
1813.27	0.001469
1822.91	0.0013182
1832.55	0.0012383
1842.2	0.0011083
1851.84	0.0010795
1861.49	0.0009923
1871.13	0.0009748
1880.78	0.0009968
1890.42	0.0010067
1900.07	0.0010876
1909.71	0.0012782
1919.36	0.001479
1929	0.0012685
1938.65	0.0011935
1948.29	0.0010551
1957.94	0.0009872
1967.58	0.0007673
1977.23	0.0006487
1986.87	0.0006493
1996.52	0.0006752
2006.16	0.0007131
2015.81	0.0006213
2025.45	0.0006064
2035.1	0.0005154
2044.74	0.0004939
2054.38	0.0003495
2064.03	0.00046122
2073.67	0.0005179
2083.32	0.00042114
2092.96	0.0005039
2102.61	0.0005153
2112.25	0.000523
2121.9	0.00044196
2131.54	0.00046722
2141.19	0.00042038
2150.83	0.00046411
2160.48	0.00042867
2170.12	0.0005203
2179.77	0.00042666
2189.41	0.00043915
2199.06	0.0005173
2208.7	0.0006185
2218.35	0.0006644
2227.99	0.0006654
2237.64	0.0005354
2247.28	0.000495
2256.92	0.0005642
2266.57	0.0004821
2276.21	0.0006241
2285.86	0.0008493
2295.5	0.0007706
2305.15	0.0005708
2314.79	0.0005778
2324.44	0.0004999
2334.08	0.00044188
2343.73	0.00041438
2353.37	0.0004941
2363.02	0.00044069
2372.66	0.0005019
2382.31	0.0007334
2391.95	0.000755
2401.6	0.0007643
2411.24	0.0006088
2420.89	0.0006269
2430.53	0.0006104
2440.18	0.0007694
2449.82	0.0008417
2459.47	0.0007296
2469.11	0.0005461
2478.75	0.0006069
2488.4	0.00054
2498.04	0.0005156
2507.69	0.00045616
2517.33	0.00041257
2526.98	0.00046072
2536.62	0.00041869
2546.27	0.00040817
2555.91	0.00043688
2565.56	0.0003942
2575.2	0.0005401
2584.85	0.0004987
2594.49	0.00046502
2604.14	0.0005597
2613.78	0.0005491
2623.43	0.0005575
2633.07	0.0005869
2642.72	0.00045562
2652.36	0.0005128
2662.01	0.0006573
2671.65	0.0007947
2681.29	0.0009881
2690.94	0.0010544
2700.58	0.0010733
2710.23	0.0010514
2719.87	0.0008255
2729.52	0.0006187
2739.16	0.0004981
2748.81	0.00044254
2758.45	0.0005696
2768.1	0.0005029
2777.74	0.0006453
2787.39	0.0005091
2797.03	0.0005972
2806.68	0.0006144
2816.32	0.0006386
2825.97	0.0007104
2835.61	0.0009121
2845.26	0.0011136
2854.9	0.0012823
2864.55	0.001449
2874.19	0.001849
2883.84	0.001899
2893.48	0.001559
2903.12	0.0011328
2912.77	0.0010663
2922.41	0.001034
2932.06	0.0011504
2941.7	0.001689
2951.35	0.002319
2960.99	0.002079
2970.64	0.002059
2980.28	0.002939
2989.93	0.001789
2999.57	0.000897
3009.22	0.0006239
3018.86	0.0006558
3028.51	0.0006084
3038.15	0.0009237
3047.8	0.0010842
3057.44	0.001309
3067.09	0.001929
3076.73	0.002479
3086.38	0.001759
3096.02	0.0012911
3105.67	0.0009478
3115.31	0.000791
3124.95	0.0005667
3134.6	0.00038937
3144.24	0.0005548
3153.89	0.0003644
3163.53	0.0004623
3173.18	0.0003246
3182.82	0.0004973
3192.47	0.000382935
3202.11	0.00040659
3211.76	0.0003479
3221.4	0.0002831
3231.05	0.000205
3240.69	0.0003467
3250.34	9.6e-05
3259.98	0.0003009
3269.63	0.000361
3279.27	0.0005161
3288.92	4.9e-05
3298.56	0.00046
3308.21	0.0002855
3317.85	0.0003561
3327.49	0.0003366
3337.14	0.00046659
3346.78	0.000205
3356.43	0.0006052
3366.07	0.0004599
3375.72	0.0009259
3385.36	0.0011121
3395.01	0.001529
3404.65	0.0011674
3414.3	0.0005582
3423.94	0.0007144
3433.59	0.0006163
3443.23	0.0008197
3452.88	0.00047244
3462.52	0.00045032
3472.17	0.000244
3481.81	0.000242
3491.46	0.0003531
3501.1	0.000112
3510.75	0.000274
3520.39	0.000378744
3530.04	0.0005892
3539.68	0.00045163
3549.32	0.00039865
3558.97	0.0005216
3568.61	0.00046996
3578.26	0.0004423
3587.9	0.0003308
3597.55	0.000243
3607.19	0.00041262
3616.84	0.000364
3626.48	0.00044239
3636.13	0.00040979
3645.77	0.0005116
3655.42	0.000222
3665.06	0.0003564
3674.71	0.000241
3684.35	0.00037559
3694	0.0003647
3703.64	0.000523
3713.29	0.000256
3722.93	0.00043177
3732.58	0.000531
3742.22	0.000382221
3751.86	0.00040051
3761.51	0.0004014
3771.15	0.00045457
3780.8	0.00043344
3790.44	0.0005711
3800.09	0.00042359
3809.73	0.000173
3819.38	0.00042275
3829.02	0.000241
3838.67	0.0004997
3848.31	0.0003657
3857.96	0.000244
3867.6	0.00039016
3877.25	0.0003437
3886.89	0.0004854
3896.54	0.000382023
3906.18	0.0003176
3915.83	0.0002883
3925.47	0.0002934
3935.12	0.0003428
3944.76	0.000246
3954.41	0.00046804
3964.05	0.00043674
3973.69	0
3983.34	0.0003434
3992.98	0.0003044
