Infrared Spectrum: Gamma TERPINENE
Formula: C10 H16
CAS: 99-85-4
Class: COBLENTZ
Instrument: Not specified, most likely a prism, grating, or hybrid spectrometer.
Sampling: TRANSMISSION
Resolution: 4
Origin: INTERNATIONAL FLAVORS & FRAGRANCES, INC.
MICROMETERS	TRANSMITTANCE
2.028	0.915
2.06539	0.915
2.10277	0.913
2.14016	0.913
2.17754	0.91
2.21493	0.909
2.25232	0.8851
2.2897	0.854
2.32709	0.851
2.36447	0.8693
2.40186	0.885
2.43925	0.885
2.47663	0.891
2.51402	0.893
2.5514	0.8941
2.58879	0.901
2.62618	0.9021
2.66356	0.912
2.70095	0.913
2.73834	0.9131
2.77572	0.915
2.81311	0.915
2.85049	0.912
2.88788	0.909
2.92527	0.904
2.96265	0.905
3.00004	0.91
3.03742	0.907
3.07481	0.893
3.1122	0.8829
3.14958	0.8771
3.18697	0.8149
3.22435	0.7891
3.26174	0.4959
3.29913	0.4564
3.33651	0.2289
3.3739	0.054
3.41128	0.089
3.44867	0.1023
3.48606	0.0521
3.52344	0.1615
3.56083	0.6859
3.59821	0.7379
3.6356	0.7827
3.67299	0.853
3.71037	0.853
3.74776	0.8833
3.78514	0.893
3.82253	0.8881
3.85992	0.885
3.8973	0.9171
3.93469	0.923
3.97207	0.929
4.00946	0.9251
4.04685	0.921
4.08423	0.9261
4.12162	0.926
4.15901	0.925
4.19639	0.921
4.23378	0.921
4.27116	0.9261
4.30855	0.939
4.34594	0.945
4.38332	0.944
4.42071	0.944
4.45809	0.944
4.49548	0.945
4.53287	0.95
4.57025	0.95
4.60764	0.952
4.64502	0.952
4.68241	0.953
4.7198	0.956
4.75718	0.9579
4.79457	0.9532
4.83195	0.955
4.86934	0.953
4.90673	0.953
4.94411	0.9549
4.9815	0.945
5.01888	0.948
5.05627	0.953
5.09366	0.955
5.13104	0.956
5.16843	0.955
5.20581	0.953
5.2432	0.948
5.28059	0.95
5.31797	0.9496
5.35536	0.9505
5.39275	0.955
5.43013	0.95
5.46752	0.945
5.5049	0.9428
5.54229	0.9221
5.57968	0.879
5.61706	0.8927
5.65445	0.925
5.69183	0.9196
5.72922	0.9162
5.76661	0.9046
5.80399	0.926
5.84138	0.9234
5.87876	0.9266
5.91615	0.9258
5.95354	0.8497
5.99092	0.8763
6.02831	0.915
6.06569	0.917
6.10308	0.9169
6.14047	0.901
6.17785	0.8879
6.21524	0.9131
6.25262	0.9229
6.29001	0.9278
6.3274	0.926
6.36478	0.9226
6.40217	0.929
6.43955	0.9246
6.47694	0.921
6.51433	0.9187
6.55171	0.907
6.5891	0.8946
6.62649	0.8819
6.66387	0.8435
6.70126	0.769
6.73864	0.6136
6.77603	0.4133
6.81342	0.2456
6.8508	0.3912
6.88819	0.2617
6.92557	0.2935
6.96296	0.38
7.00035	0.4202
7.03773	0.7506
7.07512	0.7973
7.1125	0.7947
7.14989	0.7384
7.18728	0.5425
7.22466	0.354
7.26205	0.5259
7.29943	0.5582
7.33682	0.5021
7.37421	0.8348
7.41159	0.8434
7.44898	0.7735
7.48636	0.7276
7.52375	0.8436
7.56114	0.861
7.59852	0.8242
7.63591	0.7631
7.67329	0.8026
7.71068	0.7711
7.74807	0.7102
7.78545	0.7918
7.82284	0.8773
7.86022	0.8972
7.89761	0.908
7.935	0.91
7.97238	0.92
8.00977	0.926
8.04716	0.926
8.08454	0.925
8.12193	0.921
8.15931	0.9196
8.1967	0.9062
8.23409	0.8933
8.27147	0.8687
8.30886	0.8673
8.34624	0.893
8.38363	0.8942
8.42102	0.91
8.4584	0.912
8.49579	0.9091
8.53317	0.8739
8.57056	0.696
8.60795	0.5435
8.64533	0.7566
8.68272	0.8771
8.7201	0.8904
8.75749	0.9085
8.79488	0.912
8.83226	0.91
8.86965	0.8992
8.90703	0.8529
8.94442	0.8467
8.98181	0.874
9.01919	0.8617
9.05658	0.815
9.09396	0.7967
9.13135	0.778
9.16874	0.7537
9.20612	0.8575
9.24351	0.8509
9.2809	0.7477
9.31828	0.8176
9.35567	0.89
9.39305	0.9072
9.43044	0.912
9.46783	0.91
9.50521	0.901
9.5426	0.8828
9.57998	0.8345
9.61737	0.7578
9.65476	0.6236
9.69214	0.5524
9.72953	0.6358
9.76691	0.6847
9.8043	0.5543
9.84169	0.6176
9.87907	0.7178
9.91646	0.8267
9.95384	0.8724
9.99123	0.8921
10.0286	0.903
10.066	0.9095
10.1034	0.913
10.1408	0.9111
10.1782	0.8982
10.2155	0.8814
10.2529	0.8523
10.2903	0.795
10.3277	0.707
10.3651	0.5889
10.4025	0.492
10.4399	0.4728
10.4772	0.4302
10.5146	0.2869
10.552	0.1536
10.5894	0.1999
10.6268	0.464
10.6642	0.6982
10.7016	0.7994
10.739	0.8425
10.7763	0.856
10.8137	0.8422
10.8511	0.8029
10.8885	0.7641
10.9259	0.7903
10.9633	0.8768
11.0007	0.9005
11.038	0.9163
11.0754	0.9272
11.1128	0.9321
11.1502	0.937
11.1876	0.9396
11.225	0.944
11.2624	0.944
11.2997	0.9396
11.3371	0.9335
11.3745	0.9206
11.4119	0.917
11.4493	0.9186
11.4867	0.9314
11.5241	0.9376
11.5614	0.942
11.5988	0.947
11.6362	0.947
11.6736	0.947
11.711	0.9479
11.7484	0.947
11.7858	0.947
11.8231	0.945
11.8605	0.939
11.8979	0.936
11.9353	0.9281
11.9727	0.9122
12.0101	0.8841
12.0475	0.8599
12.0848	0.8668
12.1222	0.8997
12.1596	0.9139
12.197	0.921
12.2344	0.92
12.2718	0.92
12.3092	0.923
12.3466	0.926
12.3839	0.925
12.4213	0.9205
12.4587	0.9081
12.4961	0.9002
12.5335	0.8838
12.5709	0.8524
12.6083	0.7952
12.6456	0.7188
12.683	0.588
12.7204	0.4362
12.7578	0.2762
12.7952	0.1937
12.8326	0.278
12.87	0.5425
12.9073	0.7056
12.9447	0.7994
12.9821	0.843
13.0195	0.8688
13.0569	0.8859
13.0943	0.894
13.1317	0.9035
13.169	0.9012
13.2064	0.8985
13.2438	0.9084
13.2812	0.917
13.3186	0.921
13.356	0.926
13.3934	0.926
13.4307	0.9239
13.4681	0.923
13.5055	0.925
13.5429	0.923
13.5803	0.921
13.6177	0.921
13.6551	0.92
13.6924	0.918
13.7298	0.917
13.7672	0.913
13.8046	0.912
13.842	0.909
13.8794	0.907
13.9168	0.904
13.9542	0.9019
13.9915	0.896
14.0289	0.896
14.0663	0.8931
14.1037	0.889
14.1411	0.886
14.1785	0.883
14.2159	0.881
14.2532	0.8773
14.2906	0.8704
14.328	0.87
14.3654	0.869
14.4028	0.864
14.4402	0.859
14.4776	0.8567
14.5149	0.8534
14.5523	0.85
14.5897	0.8454
14.6271	0.842
14.6645	0.838
14.7019	0.832
14.7393	0.826
14.7766	0.821
14.814	0.8122
14.8514	0.8041
14.8888	0.797
14.9262	0.8022
14.9636	0.8095
