Infrared Spectrum: .alpha.-Phellandrene
Formula: C 10 H 16
CAS: 99-83-2
State: gas
Instrument: HP-GC/MS/IRD
Origin: NIST Mass Spectrometry Data Center
1/CM	ABSORBANCE
550	0.000612
562	0.0004755
574	0.000702
586	0.000564
598	0.0003165
610	0.0001155
622	0.0001215
634	0.0001455
646	0.0002415
658	0.00021
670	0.000339
682	0.000393
694	0.000498
706	0.0008535
718	0.0012945
730	0.001893
742	0.001608
754	0.0008745
766	0.00066
778	0.00102
790	0.0018075
802	0.001371
814	0.000513
826	0.0001575
838	0.0001095
850	8.55e-05
862	6.75e-05
874	9e-06
886	6.15e-05
898	0.000132
910	0.0002625
922	0.000564
934	0.0006435
946	0.0005835
958	0.000456
970	0.0002385
982	0.0001365
994	0.0002175
1006	0.0002685
1018	0.000228
1030	0.000216
1042	0.0001815
1054	0.000201
1066	0.0002895
1078	0.000441
1090	0.0005115
1102	0.000486
1114	0.0002955
1126	0.000465
1138	0.0007095
1150	0.0010035
1162	0.001476
1174	0.001308
1186	0.0007665
1198	0.000684
1210	0.0007425
1222	0.0006405
1234	0.000471
1246	0.0004005
1258	0.0003795
1270	0.000372
1282	0.0003765
1294	0.0004635
1306	0.0005235
1318	0.0006225
1330	0.0006195
1342	0.000645
1354	0.0008925
1366	0.001473
1378	0.002181
1390	0.0021585
1402	0.001128
1414	0.000693
1426	0.0008805
1438	0.0013155
1450	0.0017625
1462	0.0021945
1474	0.0017835
1486	0.0008685
1498	0.0003555
1510	0.0002175
1522	0.0002085
1534	0.000159
1546	0.000159
1558	0.000201
1570	0.000237
1582	0.000324
1594	0.0003585
1606	0.000255
1618	0.000216
1630	0.000165
1642	0.0003045
1654	0.000609
1666	0.0005655
1678	0.0003735
1690	0.0002805
1702	0.0002745
1714	0.0002055
1726	0.000195
1738	0.000195
1750	0.000135
1762	0.000117
1774	0.0001095
1786	6.75e-05
1798	7.2e-05
1810	8.4e-05
1822	7.65e-05
1834	4.95e-05
1846	7.05e-05
1858	8.7e-05
1870	7.65e-05
1882	8.1e-05
1894	8.1e-05
1906	7.95e-05
1918	6.15e-05
1930	3.45e-05
1942	2.25e-05
1954	2.85e-05
1966	2.55e-05
1978	2.55e-05
1990	1.5e-05
2002	2.1e-05
2014	1.2e-05
2026	4.5e-06
2038	1.5e-05
2050	3.75e-05
2062	7.5e-06
2074	2.7e-05
2086	2.85e-05
2098	3.15e-05
2110	1.8e-05
2122	3.9e-05
2134	4.5e-06
2146	2.4e-05
2158	2.85e-05
2170	4.5e-06
2182	3.3e-05
2194	3.3e-05
2206	1.2e-05
2218	3.45e-05
2230	3.3e-05
2242	1.5e-05
2254	4.65e-05
2266	1.5e-05
2278	4.05e-05
2290	5.25e-05
2302	5.85e-05
2314	4.2e-05
2326	4.05e-05
2338	0.000105
2350	5.85e-05
2362	9e-05
2374	7.35e-05
2386	4.35e-05
2398	6e-05
2410	3.3e-05
2422	3.6e-05
2434	7.65e-05
2446	5.55e-05
2458	5.55e-05
2470	7.05e-05
2482	7.65e-05
2494	6.15e-05
2506	8.7e-05
2518	5.4e-05
2530	7.05e-05
2542	8.55e-05
2554	0.0001155
2566	8.55e-05
2578	0.0001095
2590	9.75e-05
2602	0.0001215
2614	0.00012
2626	0.000168
2638	0.000162
2650	0.000138
2662	0.0001485
2674	0.0001305
2686	0.000114
2698	0.000129
2710	0.0001545
2722	0.0002115
2734	0.0003075
2746	0.0003945
2758	0.000345
2770	0.000333
2782	0.000468
2794	0.000729
2806	0.0015435
2818	0.0028065
2830	0.0033
2842	0.003093
2854	0.0032475
2866	0.005382
2878	0.0086205
2890	0.0089955
2902	0.0070515
2914	0.006504
2926	0.008742
2938	0.009933
2950	0.0106095
2962	0.014532
2974	0.012708
2986	0.005805
2998	0.002667
3010	0.002982
3022	0.004989
3034	0.0056235
3046	0.00351
3058	0.0015555
3070	0.0009825
3082	0.000777
3094	0.0006255
3106	0.0004275
3118	0.000306
3130	0.000327
3142	0.0002985
3154	0.0002835
3166	0.0002625
3178	0.0002475
3190	0.0002355
3202	0.0002325
3214	0.0001335
3226	6e-05
3238	5.25e-05
3250	7.5e-05
3262	6.75e-05
3274	3.75e-05
3286	0.0001335
3298	1.65e-05
3310	4.8e-05
3322	9.45e-05
3334	0.000102
3346	1.65e-05
3358	4.2e-05
3370	9e-05
3382	9.9e-05
3394	5.7e-05
3406	7.5e-05
3418	4.05e-05
3430	0.0001065
3442	1.05e-05
3454	8.4e-05
3466	5.85e-05
3478	0.000108
3490	0.0001425
3502	0.0001395
3514	0.0001455
3526	7.2e-05
3538	0.000135
3550	0.0001515
3562	0.000108
3574	0.000171
3586	0.0001965
3598	0.000249
3610	0.00015
3622	0.0001665
3634	0.0001485
3646	0.000111
3658	0.000105
3670	0.000159
3682	0.000135
3694	0.00012
3706	0.0001425
3718	0.000159
3730	0.000207
3742	0.0001515
3754	0.000129
3766	0.000162
3778	0.000105
3790	0.000174
3802	0.000201
3814	0.000192
3826	0.000165
3838	0.0002145
