Infrared Spectrum: Beta TERPINENE
Formula: C10 H16
CAS: 99-84-3
Class: COBLENTZ
Instrument: Not specified, most likely a prism, grating, or hybrid spectrometer.
Sampling: TRANSMISSION
Resolution: 4
Origin: INTERNATIONAL FLAVORS & FRAGRANCES, INC.
MICROMETERS	TRANSMITTANCE
2.019	0.926
2.0565	0.926
2.094	0.926
2.1315	0.926
2.169	0.924
2.2065	0.9208
2.244	0.8948
2.2815	0.868
2.319	0.866
2.3565	0.8794
2.394	0.897
2.4315	0.899
2.469	0.9
2.5065	0.9081
2.544	0.915
2.5815	0.919
2.619	0.9231
2.6565	0.931
2.694	0.934
2.7315	0.9339
2.769	0.929
2.8065	0.924
2.844	0.919
2.8815	0.918
2.919	0.916
2.9565	0.918
2.994	0.9189
3.0315	0.915
3.069	0.908
3.1065	0.8999
3.144	0.895
3.1815	0.884
3.219	0.7618
3.2565	0.4986
3.294	0.548
3.33149	0.4823
3.36899	0.1508
3.40649	0.067
3.44399	0.067
3.48149	0.0881
3.51899	0.155
3.55649	0.3869
3.59399	0.7758
3.63149	0.8312
3.66899	0.846
3.70649	0.8794
3.74399	0.895
3.78149	0.902
3.81899	0.91
3.85649	0.907
3.89399	0.911
3.93149	0.931
3.96899	0.937
4.00649	0.935
4.04399	0.937
4.08149	0.937
4.11899	0.9392
4.15649	0.942
4.19399	0.953
4.23149	0.964
4.26899	0.959
4.30649	0.953
4.34399	0.943
4.38149	0.947
4.41899	0.947
4.45649	0.943
4.49399	0.9471
4.53149	0.951
4.56899	0.958
4.60649	0.9611
4.64399	0.963
4.68149	0.963
4.71899	0.961
4.75649	0.964
4.79399	0.964
4.83149	0.964
4.86899	0.964
4.90649	0.964
4.94399	0.963
4.98149	0.9589
5.01899	0.9549
5.05649	0.951
5.09399	0.953
5.13149	0.955
5.16899	0.958
5.20649	0.9551
5.24399	0.953
5.28149	0.951
5.31899	0.95
5.35649	0.947
5.39399	0.9433
5.43149	0.9392
5.46899	0.934
5.50649	0.9204
5.54399	0.8734
5.58149	0.8344
5.61899	0.8456
5.65649	0.883
5.69399	0.863
5.73149	0.8692
5.76899	0.8787
5.80649	0.873
5.84399	0.87
5.88149	0.8299
5.91898	0.6949
5.95648	0.5045
5.99398	0.3718
6.03148	0.5268
6.06898	0.7123
6.10648	0.763
6.14398	0.833
6.18148	0.842
6.21898	0.8465
6.25648	0.8636
6.29398	0.8818
6.33148	0.889
6.36898	0.8947
6.40648	0.891
6.44398	0.9027
6.48148	0.8904
6.51898	0.8833
6.55648	0.8644
6.59398	0.8395
6.63148	0.7861
6.66898	0.7634
6.70648	0.7223
6.74398	0.4072
6.78148	0.2576
6.81898	0.2902
6.85648	0.2694
6.89398	0.3232
6.93148	0.3225
6.96898	0.4019
7.00648	0.422
7.04398	0.5153
7.08148	0.644
7.11898	0.6371
7.15648	0.5611
7.19398	0.363
7.23148	0.4496
7.26898	0.5118
7.30648	0.44
7.34398	0.6033
7.38148	0.7446
7.41898	0.737
7.45648	0.7753
7.49398	0.7475
7.53148	0.7432
7.56898	0.7097
7.60648	0.6088
7.64398	0.5518
7.68148	0.6572
7.71898	0.724
7.75648	0.6376
7.79398	0.6951
7.83148	0.7289
7.86898	0.7322
7.90648	0.8031
7.94398	0.8376
7.98148	0.842
8.01898	0.8322
8.05648	0.8209
8.09398	0.81
8.13148	0.7683
8.16898	0.6799
8.20648	0.6207
8.24398	0.7573
8.28148	0.8064
8.31898	0.7807
8.35648	0.6932
8.39398	0.6528
8.43148	0.7295
8.46897	0.81
8.50647	0.8034
8.54397	0.7887
8.58147	0.7387
8.61897	0.544
8.65647	0.6258
8.69397	0.7118
8.73147	0.7718
8.76897	0.8186
8.80647	0.8362
8.84397	0.834
8.88147	0.8225
8.91897	0.804
8.95647	0.798
8.99397	0.804
9.03147	0.8041
9.06897	0.7941
9.10647	0.796
9.14397	0.8148
9.18147	0.818
9.21897	0.797
9.25647	0.7442
9.29397	0.7652
9.33147	0.8081
9.36897	0.817
9.40647	0.8031
9.44397	0.7686
9.48147	0.71
9.51897	0.7074
9.55647	0.7457
9.59397	0.7569
9.63147	0.7128
9.66897	0.61
9.70647	0.5314
9.74397	0.5666
9.78147	0.5248
9.81897	0.5165
9.85647	0.6407
9.89397	0.7313
9.93147	0.7109
9.96897	0.6879
10.0065	0.7026
10.044	0.7407
10.0815	0.7905
10.119	0.8246
10.1565	0.8399
10.194	0.8494
10.2315	0.849
10.269	0.843
10.3065	0.8316
10.344	0.8158
10.3815	0.7831
10.419	0.7386
10.4565	0.7322
10.494	0.7571
10.5315	0.778
10.569	0.7683
10.6065	0.7234
10.644	0.5659
10.6815	0.5707
10.719	0.6759
10.7565	0.683
10.794	0.627
10.8315	0.5586
10.869	0.5785
10.9065	0.6523
10.944	0.7015
10.9815	0.7029
11.019	0.689
11.0565	0.6422
11.094	0.5414
11.1315	0.3987
11.169	0.2064
11.2065	0.0965
11.244	0.0684
11.2815	0.065
11.319	0.0873
11.3565	0.2149
11.394	0.3736
11.4315	0.5182
11.469	0.6241
11.5065	0.6956
11.544	0.7243
11.5815	0.7473
11.619	0.7635
11.6565	0.7747
11.694	0.774
11.7315	0.772
11.769	0.7777
11.8065	0.792
11.844	0.8032
11.8815	0.8079
11.919	0.7975
11.9565	0.7706
11.994	0.7345
12.0315	0.6718
12.069	0.6091
12.1065	0.594
12.144	0.5901
12.1815	0.554
12.219	0.4359
12.2565	0.3439
12.294	0.3811
12.3315	0.4728
12.369	0.6928
12.4065	0.7482
12.444	0.7993
12.4815	0.823
12.519	0.8178
12.5565	0.7973
12.594	0.7603
12.6315	0.7307
12.669	0.7276
12.7065	0.7624
12.744	0.8176
12.7815	0.848
12.819	0.8652
12.8565	0.8732
12.894	0.878
12.9315	0.876
12.969	0.8728
13.0065	0.8629
13.044	0.8469
13.0815	0.817
13.119	0.8099
13.1565	0.8261
13.194	0.833
13.2315	0.8281
13.269	0.8151
13.3065	0.7887
13.344	0.7452
13.3815	0.6713
13.419	0.6059
13.4565	0.6381
13.494	0.7095
13.5315	0.8097
13.569	0.8354
13.6065	0.8498
13.644	0.858
13.6815	0.8657
13.719	0.8743
13.7565	0.8786
13.794	0.8837
13.8315	0.886
13.869	0.884
13.9065	0.8799
13.944	0.876
13.9815	0.8705
14.019	0.8671
14.0565	0.8625
14.094	0.8545
14.1315	0.8465
14.169	0.8318
14.2065	0.7911
14.244	0.7432
14.2815	0.7158
14.319	0.7148
14.3565	0.7276
14.394	0.735
14.4315	0.73
14.469	0.725
14.5065	0.729
14.544	0.7298
14.5815	0.725
14.619	0.7137
14.6565	0.6943
14.694	0.6801
14.7315	0.6707
14.769	0.668
14.8065	0.6659
14.844	0.6627
14.8815	0.653
