Infrared Spectrum: 4-Isopropylaniline
Formula: C 9 H 13 N
CAS: 99-88-7
State: gas
Origin: EPA-IR VAPOR PHASE LIBRARY
1/CM	ABSORBANCE
549.9	0.01917
559.547	0.01474
569.193	0.01152
578.84	0.00979
588.486	0.00931
598.133	0.00946
607.779	0.01014
617.426	0.01258
627.072	0.01704
636.719	0.02442
646.365	0.03436
656.012	0.03813
665.658	0.03075
675.305	0.02194
684.951	0.01845
694.598	0.01667
704.245	0.01497
713.891	0.01384
723.538	0.01252
733.184	0.0115
742.831	0.01036
752.477	0.00931
762.124	0.00895
771.77	0.00926
781.417	0.01109
791.063	0.01434
800.71	0.02137
810.356	0.03355
820.003	0.04144
829.649	0.03081
839.296	0.01763
848.943	0.0106
858.589	0.00783
868.236	0.00625
877.882	0.00541
887.529	0.00482
897.175	0.00463
906.822	0.00464
916.468	0.00461
926.115	0.00439
935.761	0.00421
945.408	0.00392
955.054	0.00394
964.701	0.00411
974.347	0.00431
983.994	0.00427
993.64	0.00404
1003.29	0.00479
1012.93	0.00595
1022.58	0.00567
1032.23	0.00583
1041.87	0.00864
1051.52	0.01185
1061.17	0.01273
1070.81	0.01123
1080.46	0.00917
1090.11	0.0086
1099.75	0.00851
1109.4	0.00856
1119.05	0.00944
1128.69	0.00929
1138.34	0.00771
1147.99	0.00579
1157.63	0.00445
1167.28	0.00543
1176.92	0.01525
1186.57	0.01651
1196.22	0.00698
1205.86	0.00428
1215.51	0.00481
1225.16	0.00524
1234.8	0.0071
1244.45	0.0132
1254.1	0.03201
1263.74	0.0632
1273.39	0.06467
1283.04	0.03001
1292.68	0.01132
1302.33	0.00834
1311.98	0.00842
1321.62	0.00721
1331.27	0.00722
1340.92	0.0089
1350.56	0.01001
1360.21	0.00953
1369.86	0.00968
1379.5	0.01032
1389.15	0.00954
1398.79	0.00671
1408.44	0.00531
1418.09	0.00561
1427.73	0.00665
1437.38	0.00778
1447.03	0.00942
1456.67	0.01223
1466.32	0.01368
1475.97	0.01238
1485.61	0.01114
1495.26	0.01933
1504.91	0.05622
1514.55	0.09149
1524.2	0.06338
1533.85	0.0196
1543.49	0.00991
1553.14	0.00648
1562.79	0.00512
1572.43	0.00573
1582.08	0.00731
1591.73	0.01076
1601.37	0.02011
1611.02	0.04164
1620.67	0.06768
1630.31	0.06288
1639.96	0.03205
1649.6	0.01386
1659.25	0.00829
1668.9	0.0058
1678.54	0.00459
1688.19	0.00426
1697.84	0.00389
1707.48	0.00335
1717.13	0.00317
1726.78	0.00315
1736.42	0.00335
1746.07	0.00327
1755.72	0.0027
1765.36	0.0019495
1775.01	0.0016337
1784.66	0.0015804
1794.3	0.0015954
1803.95	0.0016147
1813.6	0.0017044
1823.24	0.0018544
1832.89	0.00219
1842.54	0.00273
1852.18	0.00347
1861.83	0.00422
1871.47	0.00408
1881.12	0.00317
1890.77	0.0022867
1900.41	0.0019498
1910.06	0.002011
1919.71	0.0021172
1929.35	0.0020355
1939	0.0017651
1948.65	0.00152798
1958.29	0.00145005
1967.94	0.00144036
1977.59	0.00132
1987.23	0.00126
1996.88	0.001286
2006.53	0.0013707
2016.17	0.00152246
2025.82	0.00149715
2035.47	0.00149807
2045.11	0.00144806
2054.76	0.00153593
2064.41	0.001567
2074.05	0.00153995
2083.7	0.00152929
2093.35	0.00151021
2102.99	0.0013469
2112.64	0.00118
2122.28	0.001042
2131.93	0.000967
2141.58	0.000928
2151.22	0.000919
2160.87	0.000994
2170.52	0.000991
2180.16	0.00095
2189.81	0.000894
2199.46	0.000902
2209.1	0.000947
2218.75	0.000925
2228.4	0.000949
2238.04	0.001013
2247.69	0.00108
2257.34	0.001156
2266.98	0.001296
2276.63	0.001272
2286.28	0.001194
2295.92	0.001244
2305.57	0.001216
2315.22	0.001301
2324.86	0.001247
2334.51	0.001152
2344.16	0.001112
2353.8	0.001099
2363.45	0.001053
2373.09	0.001049
2382.74	0.001062
2392.39	0.001012
2402.03	0.001022
2411.68	0.000969
2421.33	0.000954
2430.97	0.00102
2440.62	0.001124
2450.27	0.001141
2459.91	0.001187
2469.56	0.000966
2479.21	0.000921
2488.85	0.000875
2498.5	0.000841
2508.15	0.000961
2517.79	0.00111
2527.44	0.001276
2537.09	0.0014064
2546.73	0.001318
2556.38	0.001137
2566.03	0.001121
2575.67	0.001187
2585.32	0.00146572
2594.96	0.0017425
2604.61	0.0016499
2614.26	0.0013895
2623.9	0.001255
2633.55	0.001064
2643.2	0.001117
2652.84	0.001127
2662.49	0.001093
2672.14	0.001018
2681.78	0.00114
2691.43	0.001129
2701.08	0.001144
2710.72	0.00143457
2720.37	0.0016921
2730.02	0.0017849
2739.66	0.0017538
2749.31	0.0017708
2758.96	0.0018838
2768.6	0.0019114
2778.25	0.001824
2787.9	0.0018241
2797.54	0.0019238
2807.19	0.0022515
2816.84	0.0025
2826.48	0.00275
2836.13	0.00354
2845.77	0.00512
2855.42	0.00814
2865.07	0.01488
2874.71	0.02628
2884.36	0.03136
2894.01	0.02935
2903.65	0.0284
2913.3	0.02861
2922.95	0.03056
2932.59	0.03677
2942.24	0.04152
2951.89	0.05429
2961.53	0.09917
2971.18	0.1052
2980.83	0.05049
2990.47	0.02395
3000.12	0.02344
3009.77	0.02677
3019.41	0.02824
3029.06	0.03175
3038.71	0.02798
3048.35	0.01896
3058	0.01463
3067.64	0.01164
3077.29	0.00856
3086.94	0.0071
3096.58	0.00647
3106.23	0.00533
3115.88	0.00421
3125.52	0.00338
3135.17	0.00276
3144.82	0.0020313
3154.46	0.0019762
3164.11	0.0017128
3173.76	0.00147097
3183.4	0.001618
3193.05	0.0015685
3202.7	0.0016423
3212.34	0.0018161
3221.99	0.0016033
3231.64	0.0016488
3241.28	0.001313
3250.93	0.00112
3260.58	0.000811
3270.22	0.000535
3279.87	0.0003
3289.52	0.00033
3299.16	0.00022
3308.81	0.00019
3318.45	0.00028
3328.1	0
3337.75	0.00025
3347.39	0.0003
3357.04	0.000619
3366.69	0.000912
3376.33	0.0014101
3385.98	0.00267
3395.63	0.00564
3405.27	0.00793
3414.92	0.00666
3424.57	0.00313
3434.21	0.0015789
3443.86	0.00147114
3453.51	0.0019401
3463.15	0.00283
3472.8	0.00405
3482.45	0.00505
3492.09	0.00544
3501.74	0.00437
3511.39	0.00266
3521.03	0.0015643
3530.68	0.000745
3540.33	0.000652
3549.97	0.000488
3559.62	0.000461
3569.26	0.000451
3578.91	0.00052
3588.56	0.000483
3598.2	0.000464
3607.85	0.000617
3617.5	0.00049
3627.14	0.000508
3636.79	0.000517
3646.44	0.000571
3656.08	0.000669
3665.73	0.000644
3675.38	0.000682
3685.02	0.000573
3694.67	0.000703
3704.32	0.000717
3713.96	0.000661
3723.61	0.000667
3733.26	0.00064
3742.9	0.000756
3752.55	0.000663
3762.2	0.000605
3771.84	0.000685
3781.49	0.000798
3791.13	0.000642
3800.78	0.000804
3810.43	0.000781
3820.07	0.000828
3829.72	0.001015
3839.37	0.001154
3849.01	0.001075
3858.66	0.001083
3868.31	0.001099
3877.95	0.001303
3887.6	0.001264
3897.25	0.001206
3906.89	0.001241
3916.54	0.001157
3926.19	0.00104
3935.83	0.001036
3945.48	0.00106
3955.13	0.001019
3964.77	0.001068
3974.42	0.000997
3984.07	0.001107
3993.71	0.001145
