Infrared Spectrum: 2,4-Quinolinediol, 3-nitroso- (keto form)
Formula: C9 H6 N2 O3
CAS: 99066-74-7
State: SOLID (SPLIT MULL), FLUOROLUBE FOR 3800-1330 CM^-^1, NUJOL FOR 1330-400 CM^-^1
Class: COBLENTZ III
Instrument: DOW KBr FOREPRISM-GRATING
Instrument parameters: BLAZED AT 3.5, 12.0, 20.0 MICRON AND CHANGED AT 5.0, 7.5, 14.9 MICRON
Sampling: TRANSMISSION
Resolution: 2
Origin: DOW CHEMICAL COMPANY
1/CM	TRANSMITTANCE
3802	0.6892
3793	0.6878
3784	0.6878
3775	0.6895
3766	0.6912
3757	0.6933
3748	0.6954
3739	0.6972
3730	0.6992
3721	0.7011
3712	0.7028
3703	0.7049
3694	0.7068
3685	0.7086
3676	0.7098
3667	0.7108
3658	0.7108
3649	0.7103
3640	0.7099
3631	0.7092
3622	0.7087
3613	0.7075
3604	0.7058
3595	0.7041
3586	0.7022
3577	0.7004
3568	0.698
3559	0.6942
3550	0.6903
3541	0.6842
3532	0.6771
3523	0.6682
3514	0.6604
3505	0.6537
3496	0.65
3487	0.6501
3478	0.6508
3469	0.6512
3460	0.6515
3451	0.6517
3442	0.65
3433	0.6464
3424	0.6457
3415	0.6455
3406	0.6458
3397	0.6498
3388	0.6514
3379	0.6496
3370	0.6472
3361	0.6436
3352	0.6391
3343	0.635
3334	0.6321
3325	0.6291
3316	0.6202
3307	0.6101
3298	0.6069
3289	0.6042
3280	0.601
3271	0.5972
3262	0.5927
3253	0.5886
3244	0.5832
3235	0.5779
3226	0.5726
3217	0.5667
3208	0.5597
3199	0.5485
3190	0.537
3181	0.5255
3172	0.5148
3163	0.507
3154	0.5012
3145	0.5065
3136	0.5158
3127	0.5229
3118	0.525
3109	0.5173
3100	0.5106
3091	0.5081
3082	0.506
3073	0.502
3064	0.491
3055	0.4783
3046	0.4652
3037	0.4543
3028	0.451
3019	0.4518
3010	0.4507
3001	0.4442
2992	0.4393
2983	0.4451
2974	0.4562
2965	0.4764
2956	0.4925
2947	0.4947
2938	0.4837
2929	0.4691
2920	0.4532
2911	0.4455
2902	0.4487
2893	0.4508
2884	0.4382
2875	0.4138
2866	0.4026
2857	0.4092
2848	0.421
2839	0.4347
2830	0.4504
2821	0.4676
2812	0.4868
2803	0.5058
2794	0.5185
2785	0.5254
2776	0.5336
2767	0.5459
2758	0.5553
2749	0.557
2740	0.5533
2731	0.5521
2722	0.5592
2713	0.571
2704	0.5834
2695	0.5955
2686	0.6077
2677	0.6176
2668	0.6273
2659	0.6347
2650	0.6421
2641	0.6493
2632	0.6564
2623	0.6628
2614	0.6686
2605	0.6745
2596	0.6811
2587	0.6872
2578	0.6903
2569	0.6918
2560	0.6944
2551	0.698
2542	0.7031
2533	0.708
2524	0.7125
2515	0.7169
2506	0.7208
2497	0.7245
2488	0.7282
2479	0.7318
2470	0.7354
2461	0.7388
2452	0.7415
2443	0.7441
2434	0.7465
2425	0.7486
2416	0.7506
2407	0.7521
2398	0.7535
2389	0.7546
2380	0.759
2371	0.7692
2362	0.7668
2353	0.7671
2344	0.7687
2335	0.7703
2326	0.7721
2317	0.774
2308	0.7768
2299	0.7805
2290	0.7841
2281	0.788
2272	0.7919
2263	0.796
2254	0.8001
2245	0.8042
2236	0.8092
2227	0.8141
2218	0.8191
2209	0.8234
2200	0.8274
2191	0.8299
2182	0.8325
2173	0.835
2164	0.8374
2155	0.8389
2146	0.8405
2137	0.842
2128	0.8431
2119	0.8433
2110	0.8436
2101	0.8439
2092	0.8444
2083	0.8467
2074	0.8513
2065	0.8558
2056	0.8594
2047	0.8628
2038	0.8662
2029	0.8697
2020	0.8733
2011	0.8767
2002	0.8783
1993	0.8809
1984	0.8786
1975	0.8818
1966	0.8811
1957	0.8823
1948	0.8778
1939	0.8771
1930	0.877
1921	0.8802
1912	0.8846
1903	0.8873
1894	0.889
1885	0.889
1876	0.8889
1867	0.8888
1858	0.8856
1849	0.8843
1840	0.8858
1831	0.8866
1822	0.8793
1813	0.8811
1804	0.8858
1795	0.8875
1786	0.8821
1777	0.8768
1768	0.8717
1759	0.87
1750	0.8668
1741	0.8455
1732	0.7989
1723	0.6901
1714	0.6071
1705	0.2675
1696	0.1232
1687	0.082
1678	0.079
1669	0.102
1660	0.1358
1651	0.1664
1642	0.3328
1633	0.3766
1624	0.2532
1615	0.2555
1606	0.1674
1597	0.3847
1588	0.5078
1579	0.5855
1570	0.6049
1561	0.5674
1552	0.5656
1543	0.4662
1534	0.3528
1525	0.274
1516	0.4056
1507	0.4662
1498	0.5249
1489	0.3054
1480	0.2484
1471	0.4819
1462	0.5051
1453	0.5066
1444	0.2593
1435	0.4162
1426	0.3722
1417	0.3304
1408	0.4681
1399	0.5337
1390	0.5472
1381	0.551
1372	0.566
1363	0.5582
1354	0.5789
1345	0.5655
1336	0.5454
1327	0.5178
1318	0.5681
1309	0.6016
1300	0.6451
1291	0.6701
1282	0.689
1273	0.7006
1264	0.5927
1255	0.6101
1246	0.5408
1237	0.5579
1228	0.5849
1219	0.5867
1210	0.5912
1201	0.517
1192	0.3374
1183	0.398
1174	0.4383
1165	0.3732
1156	0.2902
1147	0.2764
1138	0.541
1129	0.6353
1120	0.5475
1111	0.6072
1102	0.6862
1093	0.6657
1084	0.6815
1075	0.6511
1066	0.6109
1057	0.7092
1048	0.7384
1039	0.7594
1030	0.6076
1021	0.7818
1012	0.7919
1003	0.7968
994	0.8256
985	0.819
976	0.7728
967	0.7361
958	0.7797
949	0.8244
940	0.8292
931	0.8242
922	0.8139
913	0.7089
904	0.654
895	0.6797
886	0.6668
877	0.6994
868	0.7018
859	0.7324
850	0.7357
841	0.7401
832	0.7501
823	0.7592
814	0.7649
805	0.7521
796	0.591
787	0.7628
778	0.739
769	0.2833
760	0.562
751	0.8067
742	0.8445
733	0.8471
724	0.818
715	0.8489
706	0.8478
697	0.8941
688	0.8913
679	0.8018
670	0.6339
661	0.7758
652	0.8932
643	0.9136
634	0.9147
625	0.9107
616	0.6116
607	0.766
598	0.8838
589	0.8782
580	0.8825
571	0.8863
562	0.8818
553	0.8857
544	0.8821
535	0.8415
526	0.7978
517	0.8666
508	0.8956
499	0.907
490	0.9107
481	0.904
472	0.8807
463	0.7028
454	0.8412
445	0.8146
436	0.7842
427	0.827
418	0.8571
409	0.8442
400	0.8164
391	0.8051
382	0.7951
