Infrared Spectrum: Androst-5-en-17-one-3Beta- nitrite
Formula: C19 H27 N O3
CAS: 99099-00-0
State: SOLUTION (7% CHCl3 FOR 2.5-12.5 MICRON) VS SOLVENT
Melting point: 144-146 C
Class: COBLENTZ
Instrument: PERKIN-ELMER 21 (GRATING)
Instrument parameters: FILTER AT ABOUT 10 MICRONS
Path length: 0.010 CM
Resolution: 2
Origin: ABBOTT LABORATORIES
1/CM	TRANSMITTANCE
793	0.536
802	0.554
811	0.5191
820	0.2444
829	0.582
838	0.6803
847	0.7281
856	0.6688
865	0.5299
874	0.6946
883	0.699
892	0.7789
901	0.8111
910	0.8104
919	0.821
928	0.7904
937	0.7574
946	0.753
955	0.7613
964	0.7408
973	0.734
982	0.7296
991	0.7231
1000	0.678
1009	0.6662
1018	0.5105
1027	0.6933
1036	0.7458
1045	0.7355
1054	0.611
1063	0.7067
1072	0.7389
1081	0.729
1090	0.7439
1099	0.7349
1108	0.7303
1117	0.7327
1126	0.6832
1135	0.7104
1144	0.8056
1153	0.8028
1162	0.8279
1171	0.8487
1180	0.853
1189	0.8312
1198	0.7571
1207	0.7517
1216	0.7471
1225	0.7385
1234	0.73
1243	0.7524
1252	0.7531
1261	0.7803
1270	0.8164
1279	0.8062
1288	0.8018
1297	0.8082
1306	0.8043
1315	0.8163
1324	0.7961
1333	0.7309
1342	0.72
1351	0.7371
1360	0.6294
1369	0.6459
1378	0.7648
1387	0.7855
1396	0.73
1405	0.819
1414	0.8061
1423	0.7012
1432	0.696
1441	0.6748
1450	0.6652
1459	0.6626
1468	0.8337
1477	0.8653
1486	0.8803
1495	0.8969
1504	0.9117
1513	0.9063
1522	0.8946
1531	0.881
1540	0.8619
1549	0.8429
1558	0.8224
1567	0.8024
1576	0.7788
1585	0.7449
1594	0.7083
1603	0.6577
1612	0.5435
1621	0.4051
1630	0.3519
1639	0.3786
1648	0.5582
1657	0.7336
1666	0.7991
1675	0.8095
1684	0.8047
1693	0.7817
1702	0.7088
1711	0.4557
1720	0.2054
1729	0.1652
1738	0.5771
1747	0.8095
1756	0.8448
1765	0.8643
1774	0.8761
1783	0.8834
1792	0.8887
1801	0.8921
1810	0.8947
1819	0.897
1828	0.8994
1837	0.9017
1846	0.9038
1855	0.9057
1864	0.9067
1873	0.9076
1882	0.9079
1891	0.9081
1900	0.9074
1909	0.9067
1918	0.9057
1927	0.9071
1936	0.9084
1945	0.9086
1954	0.9088
1963	0.9079
1972	0.9062
1981	0.9066
1990	0.9079
1999	0.909
2008	0.9094
2017	0.9094
2026	0.9093
2035	0.9087
2044	0.9079
2053	0.907
2062	0.9064
2071	0.9062
2080	0.9059
2089	0.9066
2098	0.9076
2107	0.9089
2116	0.9104
2125	0.9119
2134	0.9122
2143	0.9121
2152	0.9114
2161	0.9112
2170	0.9121
2179	0.9131
2188	0.9139
2197	0.9145
2206	0.9137
2215	0.9129
2224	0.9122
2233	0.9117
2242	0.912
2251	0.9128
2260	0.9142
2269	0.9172
2278	0.92
2287	0.9228
2296	0.9238
2305	0.9242
2314	0.9243
2323	0.924
2332	0.9238
2341	0.9229
2350	0.9216
2359	0.9184
2368	0.9141
2377	0.9086
2386	0.9025
2395	0.8996
2404	0.9
2413	0.9008
2422	0.9021
2431	0.9037
2440	0.9056
2449	0.9075
2458	0.9085
2467	0.9093
2476	0.9095
2485	0.9093
2494	0.9075
2503	0.905
2512	0.9026
2521	0.9003
2530	0.8983
2539	0.8967
2548	0.8955
2557	0.8955
2566	0.8955
2575	0.8956
2584	0.8959
2593	0.8962
2602	0.8963
2611	0.8957
2620	0.8953
2629	0.8947
2638	0.894
2647	0.8928
2656	0.8917
2665	0.8905
2674	0.8887
2683	0.8866
2692	0.8845
2701	0.8823
2710	0.8794
2719	0.8764
2728	0.8731
2737	0.868
2746	0.8629
2755	0.8554
2764	0.8458
2773	0.8303
2782	0.7799
2791	0.7243
2800	0.671
2809	0.6471
2818	0.62
2827	0.5976
2836	0.5822
2845	0.563
2854	0.5415
2863	0.5242
2872	0.5025
2881	0.4746
2890	0.4526
2899	0.4397
2908	0.4345
2917	0.4342
2926	0.4811
2935	0.553
2944	0.6246
2953	0.6956
2962	0.7662
2971	0.8265
2980	0.8433
2989	0.8582
2998	0.8701
3007	0.8778
3016	0.8835
3025	0.8869
3034	0.8904
3043	0.892
3052	0.8935
3061	0.8945
3070	0.8946
3079	0.8946
3088	0.8949
3097	0.8954
3106	0.8969
3115	0.8983
3124	0.8982
3133	0.898
3142	0.8971
3151	0.8949
3160	0.8929
3169	0.891
3178	0.8892
3187	0.8877
3196	0.8864
3205	0.8851
3214	0.8841
3223	0.8837
3232	0.8833
3241	0.8829
3250	0.8829
3259	0.883
3268	0.8831
3277	0.8831
3286	0.8833
3295	0.8837
3304	0.884
3313	0.8843
3322	0.8847
3331	0.885
3340	0.8854
3349	0.8858
3358	0.8862
3367	0.8865
3376	0.8868
3385	0.8872
3394	0.8876
3403	0.8879
3412	0.8883
3421	0.8888
3430	0.8893
3439	0.8898
3448	0.8901
3457	0.8906
3466	0.8911
3475	0.8915
3484	0.8919
3493	0.8923
3502	0.8928
3511	0.8931
3520	0.8935
3529	0.894
3538	0.8943
3547	0.8948
3556	0.8953
3565	0.8959
3574	0.8964
3583	0.8969
3592	0.8975
3601	0.898
3610	0.8982
3619	0.8982
3628	0.8983
3637	0.8983
3646	0.8984
3655	0.8984
3664	0.8983
3673	0.898
3682	0.8977
3691	0.8975
3700	0.8973
3709	0.8971
3718	0.8967
3727	0.8963
3736	0.8959
3745	0.8955
3754	0.895
3763	0.8947
3772	0.8945
3781	0.8944
3790	0.8942
3799	0.8941
3808	0.8939
3817	0.8937
3826	0.8938
3835	0.894
3844	0.8941
3853	0.8943
3862	0.8944
3871	0.8945
3880	0.8946
3889	0.8949
3898	0.8951
3907	0.8953
3916	0.8955
3925	0.8961
3934	0.8967
3943	0.8973
3952	0.8979
3961	0.8986
3970	0.8992
3979	0.8998
3988	0.9004
3997	0.9008
