Infrared Spectrum: 9H-Purine-9-acetic acid, 6(1H)-thio-, ethyl ester
Formula: C9 H10 N4 O2 S
CAS: 99179-04-1
State: SOLID (KBr DISC)
Class: COBLENTZ III
Instrument: PERKIN-ELMER 21 (GRATING)
Instrument parameters: FILTER CHANGE ABOUT 1090 CM^-^1
Sampling: TRANSMISSION
Resolution: 2
Origin: SOUTHERN RESEARCH INSTITUTE
1/CM	TRANSMITTANCE
598	0.9864
607	0.9846
616	0.9701
625	0.926
634	0.8785
643	0.7421
652	0.9544
661	0.9277
670	0.8816
679	0.931
688	0.9241
697	0.8975
706	0.8317
715	0.893
724	0.9148
733	0.9184
742	0.9156
751	0.9119
760	0.8953
769	0.7131
778	0.6926
787	0.8365
796	0.8868
805	0.8967
814	0.8985
823	0.8958
832	0.8883
841	0.875
850	0.8515
859	0.7957
868	0.5996
877	0.6659
886	0.8034
895	0.825
904	0.8028
913	0.7605
922	0.7207
931	0.7659
940	0.7961
949	0.8059
958	0.7514
967	0.5732
976	0.6752
985	0.6976
994	0.6929
1003	0.7715
1012	0.7041
1021	0.6185
1030	0.6968
1039	0.8173
1048	0.8452
1057	0.8433
1066	0.835
1075	0.8216
1084	0.7855
1093	0.7291
1102	0.7899
1111	0.7255
1120	0.7084
1129	0.6702
1138	0.6687
1147	0.6623
1156	0.7833
1165	0.7604
1174	0.7233
1183	0.6498
1192	0.5698
1201	0.3376
1210	0.1107
1219	0.1529
1228	0.2299
1237	0.0937
1246	0.3086
1255	0.5699
1264	0.7543
1273	0.7783
1282	0.7836
1291	0.7567
1300	0.6981
1309	0.7912
1318	0.7991
1327	0.7621
1336	0.5526
1345	0.6678
1354	0.7379
1363	0.6795
1372	0.7154
1381	0.4805
1390	0.679
1399	0.5831
1408	0.4637
1417	0.2026
1426	0.4446
1435	0.6484
1444	0.7345
1453	0.7044
1462	0.6937
1471	0.757
1480	0.7359
1489	0.7099
1498	0.7954
1507	0.7939
1516	0.7757
1525	0.7405
1534	0.681
1543	0.5416
1552	0.5533
1561	0.4498
1570	0.3296
1579	0.3263
1588	0.4547
1597	0.183
1606	0.1235
1615	0.4389
1624	0.6315
1633	0.6696
1642	0.7158
1651	0.7611
1660	0.788
1669	0.8067
1678	0.8075
1687	0.8046
1696	0.7998
1705	0.7892
1714	0.7661
1723	0.7007
1732	0.4812
1741	0.1425
1750	0.1757
1759	0.5301
1768	0.8252
1777	0.8408
1786	0.8454
1795	0.8505
1804	0.8416
1813	0.8357
1822	0.8261
1831	0.8187
1840	0.8128
1849	0.8178
1858	0.824
1867	0.8277
1876	0.8362
1885	0.8492
1894	0.8424
1903	0.8399
1912	0.8389
1921	0.8393
1930	0.8399
1939	0.8392
1948	0.8369
1957	0.8327
1966	0.8262
1975	0.8122
1984	0.8032
1993	0.8091
2002	0.8156
2011	0.8194
2020	0.8219
2029	0.8327
2038	0.8395
2047	0.8424
2056	0.8457
2065	0.8488
2074	0.851
2083	0.8525
2092	0.854
2101	0.856
2110	0.8598
2119	0.8568
2128	0.8477
2137	0.8445
2146	0.8482
2155	0.8496
2164	0.8524
2173	0.8459
2182	0.8492
2191	0.8479
2200	0.8446
2209	0.8403
2218	0.836
2227	0.8387
2236	0.8314
2245	0.8314
2254	0.8311
2263	0.8265
2272	0.8215
2281	0.8154
2290	0.8101
2299	0.8024
2308	0.7885
2317	0.777
2326	0.7753
2335	0.777
2344	0.7803
2353	0.7794
2362	0.7786
2371	0.7797
2380	0.7717
2389	0.7585
2398	0.7471
2407	0.7419
2416	0.7365
2425	0.7259
2434	0.7143
2443	0.7037
2452	0.6956
2461	0.6909
2470	0.6885
2479	0.683
2488	0.6762
2497	0.6678
2506	0.6476
2515	0.6326
2524	0.6241
2533	0.6212
2542	0.6169
2551	0.6075
2560	0.5994
2569	0.5912
2578	0.5813
2587	0.571
2596	0.5633
2605	0.5575
2614	0.5536
2623	0.5501
2632	0.5438
2641	0.534
2650	0.5276
2659	0.5216
2668	0.5158
2677	0.5196
2686	0.5209
2695	0.4982
2704	0.4928
2713	0.4905
2722	0.4878
2731	0.488
2740	0.4945
2749	0.4992
2758	0.5025
2767	0.5069
2776	0.5075
2785	0.5075
2794	0.5045
2803	0.4945
2812	0.5041
2821	0.5144
2830	0.5192
2839	0.5209
2848	0.5229
2857	0.5291
2866	0.5315
2875	0.5614
2884	0.5619
2893	0.5686
2902	0.5832
2911	0.5819
2920	0.5674
2929	0.5615
2938	0.5583
2947	0.534
2956	0.4944
2965	0.479
2974	0.4794
2983	0.4885
2992	0.5076
3001	0.5268
3010	0.5493
3019	0.5737
3028	0.602
3037	0.6128
3046	0.6153
3055	0.62
3064	0.6455
3073	0.6763
3082	0.6888
3091	0.6873
3100	0.6815
3109	0.662
3118	0.6688
3127	0.697
3136	0.7049
3145	0.708
3154	0.7118
3163	0.7175
3172	0.7209
3181	0.7235
3190	0.7276
3199	0.7303
3208	0.7296
3217	0.7274
3226	0.7391
3235	0.7421
3244	0.7372
3253	0.7274
3262	0.7333
3271	0.7244
3280	0.7159
3289	0.7134
3298	0.7123
3307	0.7097
3316	0.707
3325	0.7026
3334	0.6979
3343	0.6908
3352	0.6822
3361	0.6727
3370	0.6631
3379	0.6539
3388	0.6449
3397	0.6359
3406	0.627
3415	0.6275
3424	0.6303
3433	0.6312
3442	0.6319
3451	0.6314
3460	0.6318
3469	0.6331
3478	0.6345
3487	0.6367
3496	0.6401
3505	0.6462
3514	0.6504
3523	0.653
3532	0.6649
3541	0.6682
3550	0.6698
3559	0.6804
3568	0.6991
3577	0.6928
3586	0.7001
3595	0.7064
3604	0.7126
3613	0.7249
3622	0.7324
3631	0.73
3640	0.7346
3649	0.7567
3658	0.7651
3667	0.765
3676	0.7653
3685	0.7658
3694	0.7656
3703	0.7588
3712	0.7705
3721	0.7712
3730	0.7612
3739	0.7601
3748	0.7628
3757	0.7697
3766	0.7662
3775	0.7657
3784	0.7737
3793	0.7724
3802	0.7724
3811	0.7717
3820	0.7629
3829	0.7618
3838	0.7617
3847	0.7635
3856	0.7733
3865	0.7689
3874	0.7611
3883	0.7604
3892	0.7585
3901	0.7544
3910	0.7492
3919	0.7499
3928	0.7598
3937	0.7609
3946	0.7602
3955	0.7578
3964	0.7547
3973	0.7512
3982	0.7532
3991	0.7466
