Infrared Spectrum: Methylsilane
Formula: C H6 Si
CAS: 992-94-9
State: GAS (22 mmHg, TO 750 mmHg WITH N2 DILUTION)
Boiling point: 56 C
Class: COBLENTZ
Instrument: PERKIN-ELMER 521 (GRATING)
Instrument parameters: FILTERS AT 3150, 2500, 1150, 700, 410. GRATING CHANGES: 2000, 630 CM^-^1
Sampling: TRANSMISSION
Path length: 10 CM
Resolution: 2
Origin: DOW CORNING CORP.
1/CM	TRANSMITTANCE
272	0.0039
281	0.0102
290	0.0241
299	0.0344
308	0.0434
317	0.088
326	0.0997
335	0.1352
344	0.1815
353	0.2381
362	0.3216
371	0.3759
380	0.4346
389	0.5115
398	0.5683
407	0.6284
416	0.6811
425	0.7073
434	0.7526
443	0.7798
452	0.7972
461	0.808
470	0.8264
479	0.8357
488	0.8368
497	0.8333
506	0.8238
515	0.81
524	0.7948
533	0.7826
542	0.785
551	0.7931
560	0.8077
569	0.8299
578	0.8473
587	0.8599
596	0.866
605	0.8688
614	0.8716
623	0.87
632	0.8545
641	0.853
650	0.8535
659	0.8489
668	0.8364
677	0.8098
686	0.789
695	0.8077
704	0.6632
713	0.7696
722	0.7695
731	0.8433
740	0.8606
749	0.8564
758	0.8487
767	0.8438
776	0.851
785	0.8612
794	0.8552
803	0.8414
812	0.8095
821	0.7619
830	0.7126
839	0.6321
848	0.5437
857	0.4689
866	0.3966
875	0.3766
884	0.4057
893	0.4449
902	0.4702
911	0.4236
920	0.2841
929	0.1204
938	0.1654
947	0.0384
956	0.0422
965	0.23
974	0.4296
983	0.6077
992	0.6973
1001	0.7314
1010	0.7624
1019	0.7726
1028	0.7846
1037	0.7909
1046	0.7915
1055	0.7855
1064	0.7704
1073	0.7445
1082	0.7208
1091	0.7234
1100	0.7346
1109	0.7622
1118	0.7867
1127	0.8106
1136	0.8264
1145	0.8267
1154	0.8292
1163	0.8238
1172	0.8257
1181	0.8275
1190	0.8337
1199	0.8378
1208	0.8379
1217	0.8444
1226	0.835
1235	0.8123
1244	0.7743
1253	0.7757
1262	0.7186
1271	0.7806
1280	0.7512
1289	0.8152
1298	0.8469
1307	0.8488
1316	0.8469
1325	0.8455
1334	0.8435
1343	0.841
1352	0.8397
1361	0.8364
1370	0.8219
1379	0.8123
1388	0.8101
1397	0.8098
1406	0.8111
1415	0.8111
1424	0.8113
1433	0.8116
1442	0.8119
1451	0.8122
1460	0.8125
1469	0.8128
1478	0.8131
1487	0.8133
1496	0.8136
1505	0.8139
1514	0.8142
1523	0.8145
1532	0.8148
1541	0.8151
1550	0.8153
1559	0.8156
1568	0.8159
1577	0.8162
1586	0.8165
1595	0.8168
1604	0.8171
1613	0.8173
1622	0.8176
1631	0.8179
1640	0.8182
1649	0.8185
1658	0.8188
1667	0.8191
1676	0.8193
1685	0.8196
1694	0.8199
1703	0.8202
1712	0.8205
1721	0.8208
1730	0.8211
1739	0.8213
1748	0.8216
1757	0.8219
1766	0.8199
1775	0.8189
1784	0.8235
1793	0.8203
1802	0.8234
1811	0.8244
1820	0.8216
1829	0.82
1838	0.8256
1847	0.8246
1856	0.8263
1865	0.8241
1874	0.8221
1883	0.8223
1892	0.8219
1901	0.8222
1910	0.8231
1919	0.8239
1928	0.8224
1937	0.821
1946	0.8214
1955	0.8194
1964	0.8173
1973	0.8177
1982	0.8212
1991	0.8255
2000	0.8359
2009	0.842
2018	0.8424
2027	0.841
2036	0.8392
2045	0.8363
2054	0.8315
2063	0.8207
2072	0.8032
2081	0.7787
2090	0.7498
2099	0.697
2108	0.6266
2117	0.567
2126	0.4826
2135	0.3988
2144	0.2681
2153	0.1769
2162	0.1584
2171	0.1705
2180	0.161
2189	0.1678
2198	0.2903
2207	0.4511
2216	0.5421
2225	0.6432
2234	0.7385
2243	0.7862
2252	0.8118
2261	0.8278
2270	0.8242
2279	0.824
2288	0.8255
2297	0.831
2306	0.838
2315	0.8444
2324	0.8499
2333	0.8498
2342	0.849
2351	0.8463
2360	0.8382
2369	0.8299
2378	0.824
2387	0.8204
2396	0.821
2405	0.8245
2414	0.8224
2423	0.8189
2432	0.8235
2441	0.8244
2450	0.8216
2459	0.8184
2468	0.8173
2477	0.8165
2486	0.8158
2495	0.8155
2504	0.8153
2513	0.8155
2522	0.8157
2531	0.8158
2540	0.8157
2549	0.8157
2558	0.8154
2567	0.8149
2576	0.8142
2585	0.8134
2594	0.8131
2603	0.8128
2612	0.8126
2621	0.8122
2630	0.8119
2639	0.8115
2648	0.8106
2657	0.8089
2666	0.8086
2675	0.8087
2684	0.809
2693	0.8091
2702	0.8086
2711	0.808
2720	0.8075
2729	0.8069
2738	0.8061
2747	0.8048
2756	0.8037
2765	0.8027
2774	0.8019
2783	0.8012
2792	0.8003
2801	0.7987
2810	0.7972
2819	0.7946
2828	0.7887
2837	0.78
2846	0.7728
2855	0.7711
2864	0.7701
2873	0.7689
2882	0.7681
2891	0.7652
2900	0.7614
2909	0.757
2918	0.7535
2927	0.7488
2936	0.7421
2945	0.7343
2954	0.7255
2963	0.7118
2972	0.6981
2981	0.6899
2990	0.6983
2999	0.7189
3008	0.7314
3017	0.7438
3026	0.7562
3035	0.7629
3044	0.7702
3053	0.7788
3062	0.7847
3071	0.7849
3080	0.782
3089	0.7805
3098	0.7794
3107	0.7785
3116	0.7808
3125	0.7826
3134	0.7774
3143	0.7784
3152	0.7832
3161	0.7833
3170	0.782
3179	0.7792
3188	0.785
3197	0.7846
3206	0.7842
3215	0.7858
3224	0.7865
3233	0.7865
3242	0.7862
3251	0.7856
3260	0.7851
3269	0.7847
3278	0.7844
3287	0.7839
3296	0.7831
3305	0.7823
3314	0.7816
3323	0.7809
3332	0.7802
3341	0.7795
3350	0.7789
3359	0.7784
3368	0.7781
3377	0.7776
3386	0.7769
3395	0.7759
3404	0.7749
3413	0.7739
3422	0.7737
3431	0.7735
3440	0.7734
3449	0.7732
3458	0.7731
3467	0.7733
3476	0.7735
3485	0.7737
3494	0.774
3503	0.7742
3512	0.7746
3521	0.7752
3530	0.7759
3539	0.7765
3548	0.7772
3557	0.7777
3566	0.7777
3575	0.7775
3584	0.7774
3593	0.777
3602	0.7765
3611	0.776
3620	0.7755
3629	0.7753
3638	0.7753
3647	0.7753
3656	0.7752
3665	0.7751
3674	0.7748
3683	0.7745
3692	0.774
3701	0.7728
3710	0.7717
3719	0.7704
3728	0.7681
3737	0.7649
3746	0.7698
3755	0.7694
3764	0.7689
3773	0.7681
3782	0.7676
3791	0.7673
3800	0.7673
3809	0.7676
