Infrared Spectrum: 3,4,4,-Trimethyl-1-pentyn-3-ol
Formula: C 8 H 14 O
CAS: 993-53-3
State: gas
Instrument: HP-GC/MS/IRD
Origin: NIST Mass Spectrometry Data Center
1/CM	ABSORBANCE
550	0.0011571
562	0.001932
574	0.0016653
586	0.0009555
598	0.0006342
610	0.0017997
622	0.0056721
634	0.010773
646	0.0101283
658	0.0072114
670	0.0026649
682	0.0005922
694	0.0002163
706	0.0001323
718	0.0001071
730	0.0001155
742	0
754	0.0001491
766	0.0001974
778	0.0001029
790	0.000252
802	0.0004998
814	0.000399
826	0.0002478
838	0.0002016
850	0.0002646
862	0.0004389
874	0.0010164
886	0.0020223
898	0.0029274
910	0.0040236
922	0.0048321
934	0.0031206
946	0.0012726
958	0.0006804
970	0.0006216
982	0.0009891
994	0.0019971
1006	0.0028434
1018	0.0021042
1030	0.0014154
1042	0.0015645
1054	0.0024549
1066	0.0041748
1078	0.0061026
1090	0.0077196
1102	0.008589
1114	0.0080094
1126	0.0063399
1138	0.0055041
1150	0.0050001
1162	0.0038409
1174	0.0028434
1186	0.0024486
1198	0.0024717
1210	0.002667
1222	0.0026418
1234	0.0027657
1246	0.0041391
1258	0.0045528
1270	0.0035721
1282	0.0030765
1294	0.0035616
1306	0.0046053
1318	0.0050568
1330	0.0040089
1342	0.0028434
1354	0.0032214
1366	0.0059262
1378	0.007035
1390	0.0043617
1402	0.0026922
1414	0.0015981
1426	0.0009849
1438	0.0013083
1450	0.0019593
1462	0.0026313
1474	0.0029211
1486	0.0023982
1498	0.0013293
1510	0.0005439
1522	0.0003402
1534	0.0002667
1546	0.0001974
1558	0.0001785
1570	0.0001407
1582	7.98e-05
1594	6.09e-05
1606	7.56e-05
1618	6.93e-05
1630	7.98e-05
1642	6.93e-05
1654	9.24e-05
1666	5.46e-05
1678	4.62e-05
1690	1.68e-05
1702	3.57e-05
1714	2.94e-05
1726	1.89e-05
1738	4.2e-05
1750	1.89e-05
1762	1.26e-05
1774	3.78e-05
1786	1.89e-05
1798	1.47e-05
1810	1.47e-05
1822	1.26e-05
1834	3.15e-05
1846	4.83e-05
1858	4.2e-06
1870	2.52e-05
1882	3.99e-05
1894	2.94e-05
1906	1.47e-05
1918	1.47e-05
1930	2.31e-05
1942	2.73e-05
1954	3.57e-05
1966	1.26e-05
1978	2.94e-05
1990	2.1e-05
2002	5.04e-05
2014	6.3e-05
2026	6.3e-05
2038	7.35e-05
2050	1.68e-05
2062	1.05e-05
2074	8.4e-06
2086	2.1e-05
2098	3.99e-05
2110	5.88e-05
2122	5.04e-05
2134	1.47e-05
2146	8.4e-06
2158	3.99e-05
2170	4.2e-05
2182	5.25e-05
2194	4.41e-05
2206	6.3e-06
2218	3.78e-05
2230	3.78e-05
2242	4.83e-05
2254	6.09e-05
2266	5.88e-05
2278	6.51e-05
2290	7.56e-05
2302	7.56e-05
2314	5.04e-05
2326	5.04e-05
2338	7.35e-05
2350	7.14e-05
2362	0.0001113
2374	0.0001218
2386	9.66e-05
2398	0.0001092
2410	0.0001113
2422	0.000105
2434	9.24e-05
2446	6.93e-05
2458	8.82e-05
2470	0.0001092
2482	8.82e-05
2494	6.3e-05
2506	5.67e-05
2518	7.77e-05
2530	4.2e-05
2542	9.24e-05
2554	7.14e-05
2566	0.0001281
2578	0.0001134
2590	0.0001491
2602	0.0001638
2614	0.0001617
2626	0.0001134
2638	0.0001218
2650	0.0001092
2662	0.0001743
2674	0.0002058
2686	0.000231
2698	0.0002289
2710	0.0002394
2722	0.0002709
2734	0.0003192
2746	0.0002877
2758	0.0003024
2770	0.0002793
2782	0.0003255
2794	0.00042
2806	0.0004977
2818	0.0005691
2830	0.0007035
2842	0.0008715
2854	0.0012474
2866	0.0024885
2878	0.0047607
2890	0.0057729
2902	0.0056175
2914	0.0061761
2926	0.0068418
2938	0.0079275
2950	0.0107457
2962	0.0161826
2974	0.021
2986	0.0173481
2998	0.0096516
3010	0.0047817
3022	0.0019551
3034	0.0009555
3046	0.0007035
3058	0.000588
3070	0.0004368
3082	0.0003717
3094	0.0003192
3106	0.0003024
3118	0.0003234
3130	0.0003444
3142	0.0002856
3154	0.0003192
3166	0.0003549
3178	0.0003843
3190	0.0003381
3202	0.000315
3214	0.0003486
3226	0.000315
3238	0.0003528
3250	0.0003192
3262	0.0004704
3274	0.0007287
3286	0.0014175
3298	0.0026964
3310	0.0052458
3322	0.0077973
3334	0.0053655
3346	0.0011928
3358	0.0004494
3370	0.0002457
3382	0.0001638
3394	0.0001701
3406	0.0001512
3418	0.0001386
3430	0.0001197
3442	0.0001092
3454	0.000105
3466	0.0001722
3478	0.0001386
3490	0.0001596
3502	0.0001344
3514	0.0001617
3526	0.0001008
3538	1.47e-05
3550	1.05e-05
3562	7.35e-05
3574	5.46e-05
3586	9.87e-05
3598	0.0001092
3610	0.0002037
3622	0.0005838
3634	0.0020034
3646	0.0034776
3658	0.0020307
3670	0.0005208
3682	0.0001512
3694	0.0001092
3706	4.62e-05
3718	4.62e-05
3730	0.0001176
3742	9.66e-05
3754	4.83e-05
3766	0.0001008
3778	0.000126
3790	9.66e-05
3802	0.0001722
3814	0.0001176
3826	8.19e-05
3838	0.0001029
