Infrared Spectrum: 5-Methyl-1-hepten-4-ol
Formula: C 8 H 16 O
CAS: 99328-46-8
State: gas
Instrument: HP-GC/MS/IRD
Origin: NIST Mass Spectrometry Data Center
1/CM	ABSORBANCE
550	0.00014
562	4.76e-05
574	0.0001316
586	0.0001568
598	0.0005012
610	0.0008176
622	0.0009436
634	0.0009604
646	0.0008624
658	0.0006552
670	0.0003528
682	0.0003136
694	0.0002884
706	0.000252
718	0.000154
730	0.0001428
742	0.0002212
754	0.0002604
766	0.00049
778	0.0007168
790	0.0006272
802	0.0005348
814	0.0005264
826	0.000644
838	0.0011788
850	0.0019208
862	0.0022736
874	0.0019852
886	0.0019124
898	0.0031864
910	0.0063784
922	0.0072548
934	0.0044464
946	0.0033908
958	0.0039816
970	0.0051296
982	0.0074704
994	0.01001
1006	0.0099876
1018	0.0086268
1030	0.00735
1042	0.0060704
1054	0.0048496
1066	0.0037968
1078	0.0032452
1090	0.003108
1102	0.003136
1114	0.0031668
1126	0.0032396
1138	0.0031948
1150	0.002772
1162	0.002282
1174	0.001974
1186	0.0020832
1198	0.0026152
1210	0.0031864
1222	0.0034356
1234	0.003402
1246	0.0033124
1258	0.0033432
1270	0.0032452
1282	0.0029792
1294	0.0026908
1306	0.0024136
1318	0.0022428
1330	0.0022148
1342	0.0023604
1354	0.0028812
1366	0.0038332
1378	0.0052388
1390	0.0053816
1402	0.0035084
1414	0.0025536
1426	0.0026936
1438	0.0032676
1450	0.0039676
1462	0.0046368
1474	0.0036792
1486	0.0018508
1498	0.0009128
1510	0.0005488
1522	0.0004172
1534	0.0004032
1546	0.000336
1558	0.00028
1570	0.0003304
1582	0.0002912
1594	0.0003416
1606	0.0004788
1618	0.000882
1630	0.0022876
1642	0.0030772
1654	0.0013076
1666	0.0004116
1678	0.0002184
1690	0.0001428
1702	7.84e-05
1714	3.64e-05
1726	5.32e-05
1738	3.36e-05
1750	1.96e-05
1762	2.8e-05
1774	1.68e-05
1786	5.32e-05
1798	7.56e-05
1810	0.000168
1822	0.0004088
1834	0.0007476
1846	0.0006104
1858	0.0002996
1870	0.000126
1882	7.84e-05
1894	7e-05
1906	6.44e-05
1918	2.52e-05
1930	2.24e-05
1942	2.24e-05
1954	3.36e-05
1966	5.04e-05
1978	8.4e-05
1990	6.72e-05
2002	3.64e-05
2014	1.68e-05
2026	2.52e-05
2038	1.96e-05
2050	2.24e-05
2062	1.96e-05
2074	1.96e-05
2086	2.52e-05
2098	1.4e-05
2110	1.68e-05
2122	3.36e-05
2134	1.4e-05
2146	4.76e-05
2158	3.08e-05
2170	2.24e-05
2182	2.52e-05
2194	1.68e-05
2206	3.64e-05
2218	2.8e-05
2230	4.76e-05
2242	3.36e-05
2254	4.76e-05
2266	4.2e-05
2278	7.84e-05
2290	6.44e-05
2302	5.04e-05
2314	8.4e-05
2326	9.52e-05
2338	0.0001456
2350	0.000112
2362	0.0001764
2374	0.0001372
2386	9.52e-05
2398	0.0001204
2410	0.000112
2422	0.000112
2434	0.0001148
2446	0.0001092
2458	9.52e-05
2470	8.4e-05
2482	9.52e-05
2494	8.12e-05
2506	0.000112
2518	9.8e-05
2530	0.0001344
2542	0.00014
2554	0.0001904
2566	0.0002268
2578	0.0002632
2590	0.000308
2602	0.0003332
2614	0.0003416
2626	0.000364
2638	0.0003892
2650	0.000406
2662	0.0004396
2674	0.0004872
2686	0.0005544
2698	0.0005712
2710	0.0006132
2722	0.0006916
2734	0.0007868
2746	0.0008568
2758	0.00084
2770	0.0008764
2782	0.0009492
2794	0.0011704
2806	0.0013636
2818	0.0018004
2830	0.002548
2842	0.00378
2854	0.0059332
2866	0.0097804
2878	0.0148932
2890	0.016926
2902	0.0152432
2914	0.0160636
2926	0.0187656
2938	0.0205212
2950	0.0196532
2962	0.0239708
2974	0.0274932
2986	0.0168784
2998	0.008078
3010	0.0050344
3022	0.003374
3034	0.0023828
3046	0.0021028
3058	0.002338
3070	0.0032816
3082	0.0052416
3094	0.0041076
3106	0.0015204
3118	0.0009324
3130	0.0007588
3142	0.0006272
3154	0.0005628
3166	0.0004844
3178	0.000406
3190	0.0002912
3202	0.000252
3214	0.000182
3226	0.0001148
3238	9.24e-05
3250	6.72e-05
3262	0.000112
3274	7.84e-05
3286	8.12e-05
3298	8.68e-05
3310	6.16e-05
3322	4.76e-05
3334	5.32e-05
3346	5.32e-05
3358	4.2e-05
3370	3.08e-05
3382	4.48e-05
3394	6.72e-05
3406	6.72e-05
3418	7.84e-05
3430	4.2e-05
3442	4.48e-05
3454	5.6e-05
3466	7e-05
3478	3.92e-05
3490	8.4e-06
3502	2.8e-05
3514	3.92e-05
3526	2.8e-05
3538	5.04e-05
3550	9.24e-05
3562	7.28e-05
3574	0.0001316
3586	0.0001932
3598	0.000476
3610	0.0011368
3622	0.0018032
3634	0.0018368
3646	0.002016
3658	0.0018872
3670	0.0010696
3682	0.0004564
3694	0.0001848
3706	0.0001064
3718	6.16e-05
3730	0
3742	0
3754	0
3766	0
3778	0
3790	0
3802	0
3814	2.8e-06
3826	0
3838	0
