Infrared Spectrum: CHLOROTRIETHYLSILANE
Formula: C6 H15 Cl Si
CAS: 994-30-9
State: SOLID (BETWEEN SALTS)
Class: COBLENTZ
Instrument: BECKMAN IR-4 (HYBRID PRISM-GRATING)
Sampling: TRANSMISSION
Resolution: 4
Origin: PENINSULAR CHEMRESEARCH, INC., GAINESVILLE, FLORIDA
MICROMETERS	TRANSMITTANCE
2.025	0.911
2.05996	0.912
2.09491	0.911
2.12987	0.913
2.16483	0.908
2.19978	0.903
2.23474	0.9
2.2697	0.895
2.30466	0.91
2.33961	0.901
2.37457	0.908
2.40953	0.916
2.44448	0.918
2.47944	0.91
2.5144	0.906
2.54935	0.91
2.58431	0.917
2.61927	0.906
2.65422	0.913
2.68918	0.906
2.72414	0.902
2.7591	0.908
2.79405	0.908
2.82901	0.902
2.86397	0.898
2.89892	0.892
2.93388	0.891
2.96884	0.89
3.00379	0.892
3.03875	0.895
3.07371	0.896
3.10867	0.892
3.14362	0.885
3.17858	0.87
3.21354	0.867
3.24849	0.861
3.28345	0.822
3.31841	0.631
3.35336	0.261
3.38832	0.338
3.42328	0.36
3.45823	0.442
3.49319	0.793
3.52815	0.821
3.56311	0.865
3.59806	0.898
3.63302	0.905
3.66798	0.908
3.70293	0.916
3.73789	0.917
3.77285	0.918
3.8078	0.935
3.84276	0.938
3.87772	0.937
3.91267	0.938
3.94763	0.943
3.98259	0.941
4.01755	0.94
4.0525	0.938
4.08746	0.935
4.12242	0.932
4.15737	0.923
4.19233	0.921
4.22729	0.933
4.26224	0.945
4.2972	0.95
4.33216	0.945
4.36711	0.931
4.40207	0.93
4.43703	0.93
4.47199	0.933
4.50694	0.936
4.5419	0.942
4.57686	0.943
4.61181	0.942
4.64677	0.942
4.68173	0.938
4.71668	0.945
4.75164	0.943
4.7866	0.947
4.82156	0.941
4.85651	0.945
4.89147	0.948
4.92643	0.948
4.96138	0.933
4.99634	0.94
5.0313	0.937
5.06625	0.941
5.10121	0.936
5.13617	0.932
5.17112	0.94
5.20608	0.936
5.24104	0.938
5.276	0.94
5.31095	0.94
5.34591	0.935
5.38087	0.935
5.41582	0.931
5.45078	0.942
5.48574	0.938
5.52069	0.931
5.55565	0.935
5.59061	0.931
5.62556	0.933
5.66052	0.921
5.69548	0.922
5.73044	0.921
5.76539	0.91
5.80035	0.917
5.83531	0.926
5.87026	0.925
5.90522	0.922
5.94018	0.921
5.97513	0.918
6.01009	0.925
6.04505	0.923
6.08	0.92
6.11496	0.913
6.14992	0.918
6.18488	0.918
6.21983	0.918
6.25479	0.918
6.28975	0.911
6.3247	0.918
6.35966	0.915
6.39462	0.916
6.42957	0.906
6.46453	0.912
6.49949	0.903
6.53445	0.907
6.5694	0.902
6.60436	0.902
6.63932	0.89
6.67427	0.867
6.70923	0.82
6.74419	0.615
6.77914	0.527
6.8141	0.622
6.84906	0.713
6.88401	0.805
6.91897	0.827
6.95393	0.81
6.98889	0.71
7.02384	0.602
7.0588	0.637
7.09376	0.755
7.12871	0.825
7.16367	0.812
7.19863	0.771
7.23358	0.833
7.26854	0.888
7.3035	0.902
7.33845	0.907
7.37341	0.907
7.40837	0.907
7.44333	0.91
7.47828	0.905
7.51324	0.905
7.5482	0.907
7.58315	0.908
7.61811	0.907
7.65307	0.908
7.68802	0.906
7.72298	0.905
7.75794	0.901
7.7929	0.896
7.82785	0.888
7.86281	0.872
7.89777	0.851
7.93272	0.816
7.96768	0.726
8.00264	0.62
8.03759	0.537
8.07255	0.585
8.10751	0.688
8.14246	0.797
8.17742	0.848
8.21238	0.886
8.24734	0.897
8.28229	0.905
8.31725	0.906
8.35221	0.907
8.38716	0.903
8.42212	0.905
8.45708	0.903
8.49203	0.903
8.52699	0.901
8.56195	0.901
8.5969	0.898
8.63186	0.898
8.66682	0.895
8.70178	0.893
8.73673	0.887
8.77169	0.885
8.80665	0.876
8.8416	0.866
8.87656	0.856
8.91152	0.845
8.94647	0.836
8.98143	0.812
9.01639	0.791
9.05134	0.756
9.0863	0.712
9.12126	0.662
9.15622	0.59
9.19117	0.511
9.22613	0.453
9.26109	0.4
9.29604	0.363
9.331	0.371
9.36596	0.393
9.40091	0.43
9.43587	0.49
9.47083	0.555
9.50579	0.615
9.54074	0.653
9.5757	0.682
9.61066	0.716
9.64561	0.718
9.68057	0.69
9.71553	0.612
9.75048	0.456
9.78544	0.327
9.8204	0.323
9.85535	0.35
9.89031	0.33
9.92527	0.296
9.96023	0.341
9.99518	0.485
10.0301	0.638
10.0651	0.71
10.1001	0.748
10.135	0.741
10.17	0.725
10.2049	0.688
10.2399	0.671
10.2748	0.685
10.3098	0.71
10.3448	0.725
10.3797	0.728
10.4147	0.75
10.4496	0.775
10.4846	0.791
10.5195	0.79
10.5545	0.787
10.5895	0.813
10.6244	0.845
10.6594	0.875
10.6943	0.895
10.7293	0.905
10.7642	0.913
10.7992	0.917
10.8341	0.92
10.8691	0.923
10.9041	0.925
10.939	0.926
10.974	0.927
11.0089	0.93
11.0439	0.93
11.0788	0.93
11.1138	0.926
11.1488	0.928
11.1837	0.921
11.2187	0.92
11.2536	0.926
11.2886	0.918
11.3235	0.918
11.3585	0.921
11.3935	0.916
11.4284	0.921
11.4634	0.92
11.4983	0.915
11.5333	0.916
11.5682	0.912
11.6032	0.911
11.6382	0.911
11.6731	0.907
11.7081	0.908
11.743	0.908
11.778	0.902
11.8129	0.903
11.8479	0.903
11.8829	0.902
11.9178	0.896
11.9528	0.892
11.9877	0.89
12.0227	0.882
12.0576	0.871
12.0926	0.87
12.1276	0.871
12.1625	0.873
12.1975	0.877
12.2324	0.88
12.2674	0.88
12.3023	0.878
12.3373	0.88
12.3723	0.877
12.4072	0.873
12.4422	0.875
12.4771	0.871
12.5121	0.866
12.547	0.863
12.582	0.863
12.617	0.861
12.6519	0.858
12.6869	0.855
12.7218	0.851
12.7568	0.843
12.7917	0.838
12.8267	0.827
12.8617	0.812
12.8966	0.802
12.9316	0.787
12.9665	0.762
13.0015	0.742
13.0364	0.718
13.0714	0.693
13.1063	0.66
13.1413	0.626
13.1763	0.57
13.2112	0.507
13.2462	0.442
13.2811	0.358
13.3161	0.266
13.351	0.172
13.386	0.113
13.421	0.078
13.4559	0.066
13.4909	0.076
13.5258	0.085
13.5608	0.093
13.5957	0.087
13.6307	0.077
13.6657	0.08
13.7006	0.088
13.7356	0.106
13.7705	0.122
13.8055	0.147
13.8404	0.156
13.8754	0.17
13.9104	0.192
13.9453	0.222
13.9803	0.271
14.0152	0.303
14.0502	0.325
14.0851	0.332
14.1201	0.327
14.1551	0.311
14.19	0.283
14.225	0.261
14.2599	0.256
14.2949	0.267
14.3298	0.282
14.3648	0.302
14.3998	0.325
14.4347	0.353
14.4697	0.372
14.5046	0.376
14.5396	0.397
14.5745	0.406
14.6095	0.42
14.6445	0.436
14.6794	0.455
14.7144	0.468
14.7493	0.477
14.7843	0.486
14.8192	0.49
14.8542	0.491
14.8892	0.49
14.9241	0.486
14.9591	0.478
14.994	0.476
