Infrared Spectrum: 1-(2,4-Dimethylphenyl)ethanol
Formula: C 10 H 14 O
CAS: 99500-87-5
State: gas
Instrument: HP-GC/MS/IRD
Origin: NIST Mass Spectrometry Data Center
1/CM	ABSORBANCE
550	0.0007161
562	0.0009152
574	0.0014762
586	0.0008789
598	0.0002838
610	0.0002321
622	2.09e-05
634	0.0001298
646	9.13e-05
658	3.41e-05
670	3.85e-05
682	9.02e-05
694	0.0001529
706	0.000319
718	0.000385
730	0.0004631
742	0.0004664
754	0.0002794
766	0.0003025
778	0.0002486
790	0.000572
802	0.0019107
814	0.0048543
826	0.0034914
838	0.0010879
850	0.000627
862	0.0011132
874	0.0022429
886	0.0033561
898	0.0023463
910	0.0012012
922	0.0014179
934	0.001584
946	0.000979
958	0.0010065
970	0.0011682
982	0.0018139
994	0.003245
1006	0.0040018
1018	0.0027885
1030	0.0022209
1042	0.0028039
1054	0.0046563
1066	0.0076483
1078	0.0088506
1090	0.0056254
1102	0.0027302
1114	0.0022539
1126	0.0022891
1138	0.0017699
1150	0.0012837
1162	0.00143
1174	0.0015994
1186	0.0016423
1198	0.0015763
1210	0.0016742
1222	0.0019426
1234	0.0028204
1246	0.0038852
1258	0.0041195
1270	0.0030866
1282	0.0027764
1294	0.0023782
1306	0.0018337
1318	0.0018821
1330	0.0023353
1342	0.0031471
1354	0.0039457
1366	0.0041536
1378	0.0045397
1390	0.0033528
1402	0.0022198
1414	0.0021043
1426	0.0021978
1438	0.0024563
1450	0.0027874
1462	0.0027423
1474	0.002266
1486	0.0025168
1498	0.0034122
1510	0.0027247
1522	0.0016962
1534	0.0012485
1546	0.0010274
1558	0.0009592
1570	0.0008767
1582	0.0008514
1594	0.0009625
1606	0.0018843
1618	0.0021901
1630	0.0010285
1642	0.0004554
1654	0.0002816
1666	0.0001408
1678	0.0001826
1690	0.0001958
1702	0.0002211
1714	0.000132
1726	0.0001826
1738	0.0003344
1750	0.0002959
1762	0.0002123
1774	0.0001738
1786	0.0001474
1798	0.0001133
1810	0.0001045
1822	0.0001936
1834	0.0001023
1846	0.0001089
1858	0.0001276
1870	0.0002134
1882	0.0002992
1894	0.0003641
1906	0.0002794
1918	0.0002002
1930	0.0001221
1942	0.0001078
1954	0.0001067
1966	0.0001133
1978	6.71e-05
1990	7.48e-05
2002	8.91e-05
2014	7.7e-06
2026	2.64e-05
2038	3.63e-05
2050	4.84e-05
2062	6.05e-05
2074	8.03e-05
2086	5.61e-05
2098	7.04e-05
2110	5.17e-05
2122	5.72e-05
2134	1.43e-05
2146	1.65e-05
2158	4.51e-05
2170	5.28e-05
2182	5.39e-05
2194	3.63e-05
2206	4.07e-05
2218	2.09e-05
2230	1.43e-05
2242	5.94e-05
2254	5.17e-05
2266	7.7e-05
2278	9.13e-05
2290	8.25e-05
2302	9.79e-05
2314	0.0001078
2326	9.02e-05
2338	9.79e-05
2350	9.13e-05
2362	0.0001496
2374	6.27e-05
2386	0.0001199
2398	0.0001221
2410	0.0001089
2422	0.000132
2434	0.0001298
2446	0.0001155
2458	0.0001364
2470	0.0001496
2482	0.0001474
2494	0.000165
2506	0.0001595
2518	0.0001276
2530	0.0001309
2542	0.0001166
2554	0.0001144
2566	0.0001155
2578	0.0001265
2590	0.0001386
2602	0.0001771
2614	0.0001881
2626	0.0002222
2638	0.0001958
2650	0.0001529
2662	0.0002134
2674	0.0001925
2686	0.0002288
2698	0.0002618
2710	0.0002431
2722	0.0003344
2734	0.0004785
2746	0.0005753
2758	0.0004532
2770	0.0003971
2782	0.0004653
2794	0.0005181
2806	0.0006017
2818	0.0008063
2830	0.001012
2842	0.0013805
2854	0.0022077
2866	0.0038874
2878	0.0053031
2890	0.0055935
2902	0.0060115
2914	0.0070686
2926	0.0098945
2938	0.0104984
2950	0.0073249
2962	0.0064955
2974	0.0095348
2986	0.0106216
2998	0.0070774
3010	0.0064933
3022	0.0061908
3034	0.004917
3046	0.0037565
3058	0.0027841
3070	0.0022088
3082	0.0016324
3094	0.001243
3106	0.0009647
3118	0.0007909
3130	0.0005786
3142	0.0004235
3154	0.0003399
3166	0.000275
3178	0.0002321
3190	0.0002387
3202	0.0001595
3214	0.0002618
3226	0.0001188
3238	0.0001617
3250	4.95e-05
3262	7.59e-05
3274	0.00011
3286	8.58e-05
3298	4.84e-05
3310	8.91e-05
3322	9.68e-05
3334	8.14e-05
3346	0.0001133
3358	0.0001155
3370	6.27e-05
3382	9.9e-05
3394	0.0001067
3406	0.000121
3418	0.0001397
3430	0.0001584
3442	0.0001265
3454	0.0001749
3466	0.0001287
3478	8.03e-05
3490	5.06e-05
3502	6.6e-05
3514	5.61e-05
3526	8.25e-05
3538	4.73e-05
3550	4.51e-05
3562	6.16e-05
3574	0.0001144
3586	0.0001595
3598	0.0001122
3610	0.000165
3622	0.0004015
3634	0.0012386
3646	0.0023386
3658	0.0015642
3670	0.0005104
3682	0.0002112
3694	0.0001771
3706	5.94e-05
3718	0.0001672
3730	0.0001474
3742	7.37e-05
3754	0.0001925
3766	0.0001001
3778	0.0001243
3790	0.0001595
3802	0.0001133
3814	9.68e-05
3826	0.0001012
3838	0.0001408
