Infrared Spectrum: 2H-THIOPYRAN-4-IMINE, N-HYDROXY-TETRAHYDRO-1,1-DIOXIDE
Formula: C5 H9 N O3 S
CAS: 99586-63-7
State: SOLID (1 mg / 500 mg KBr DISC)
Class: COBLENTZ III
Instrument: PERKIN-ELMER 521 (GRATING)
Sampling: TRANSMISSION
Resolution: 4
Origin: SOUTHERN RESEARCH INSTITUTE
1/CM	TRANSMITTANCE
251.761	0.251
262.324	0.2929
272.888	0.38
283.451	0.481
294.015	0.524
304.578	0.545
315.141	0.6109
325.705	0.679
336.268	0.706
346.832	0.702
357.395	0.681
367.958	0.769
378.522	0.775
389.085	0.774
399.649	0.762
410.212	0.746
420.776	0.703
431.339	0.5412
441.902	0.4919
452.466	0.587
463.029	0.807
473.593	0.818
484.156	0.803
494.719	0.78
505.283	0.741
515.846	0.616
526.41	0.7339
536.973	0.782
547.536	0.767
558.1	0.733
568.663	0.707
579.227	0.783
589.79	0.748
600.353	0.708
610.917	0.708
621.48	0.724
632.044	0.762
642.607	0.796
653.171	0.8
663.734	0.724
674.297	0.801
684.861	0.7611
695.424	0.833
705.988	0.669
716.551	0.864
727.114	0.881
737.678	0.883
748.241	0.875
758.805	0.832
769.368	0.885
779.931	0.881
790.495	0.875
801.058	0.858
811.622	0.853
822.185	0.835
832.748	0.811
843.312	0.753
853.875	0.5821
864.439	0.5059
875.002	0.775
885.565	0.782
896.129	0.7031
906.692	0.479
917.256	0.72
927.819	0.62
938.383	0.486
948.946	0.5229
959.509	0.8559
970.073	0.876
980.636	0.812
991.2	0.6109
1001.76	0.7708
1012.33	0.863
1022.89	0.692
1033.45	0.828
1044.02	0.874
1054.58	0.859
1065.14	0.835
1075.71	0.8
1086.27	0.744
1096.83	0.654
1107.4	0.4052
1117.96	0.2569
1128.52	0.643
1139.09	0.727
1149.65	0.716
1160.21	0.7481
1170.78	0.619
1181.34	0.787
1191.9	0.821
1202.47	0.699
1213.03	0.7168
1223.59	0.826
1234.16	0.779
1244.72	0.669
1255.28	0.486
1265.85	0.2741
1276.41	0.5309
1286.97	0.636
1297.54	0.709
1308.1	0.52
1318.67	0.532
1329.23	0.6179
1339.79	0.763
1350.36	0.834
1360.92	0.854
1371.48	0.855
1382.05	0.7821
1392.61	0.703
1403.17	0.695
1413.74	0.633
1424.3	0.5798
1434.86	0.7
1445.43	0.784
1455.99	0.866
1466.55	0.893
1477.12	0.913
1487.68	0.918
1498.24	0.921
1508.81	0.925
1519.37	0.927
1529.93	0.933
1540.5	0.933
1551.06	0.931
1561.62	0.931
1572.19	0.933
1582.75	0.926
1593.31	0.918
1603.88	0.914
1614.44	0.893
1625	0.892
1635.57	0.893
1646.13	0.883
1656.69	0.843
1667.26	0.937
1677.82	0.939
1688.38	0.939
1698.95	0.942
1709.51	0.94
1720.07	0.943
1730.64	0.943
1741.2	0.943
1751.76	0.942
1762.33	0.943
1772.89	0.943
1783.46	0.944
1794.02	0.943
1804.58	0.942
1815.15	0.943
1825.71	0.94
1836.27	0.938
1846.84	0.935
1857.4	0.943
1867.96	0.944
1878.53	0.943
1889.09	0.944
1899.65	0.948
1910.22	0.948
1920.78	0.942
1931.34	0.938
1941.91	0.938
1952.47	0.938
1963.03	0.938
1973.6	0.938
1984.16	0.937
1994.72	0.937
2005.29	0.934
2015.85	0.931
2026.41	0.931
2036.98	0.931
2047.54	0.929
2058.1	0.931
2068.67	0.927
2079.23	0.925
2089.79	0.925
2100.36	0.926
2110.92	0.931
2121.48	0.933
2132.05	0.933
2142.61	0.933
2153.17	0.933
2163.74	0.931
2174.3	0.93
2184.86	0.929
2195.43	0.926
2205.99	0.923
2216.55	0.919
2227.12	0.925
2237.68	0.929
2248.25	0.923
2258.81	0.922
2269.37	0.922
2279.94	0.921
2290.5	0.921
2301.06	0.921
2311.63	0.919
2322.19	0.916
2332.75	0.916
2343.32	0.913
2353.88	0.912
2364.44	0.912
2375.01	0.916
2385.57	0.918
2396.13	0.918
2406.7	0.917
2417.26	0.917
2427.82	0.918
2438.39	0.918
2448.95	0.918
2459.51	0.918
2470.08	0.921
2480.64	0.917
2491.2	0.917
2501.77	0.917
2512.33	0.916
2522.89	0.917
2533.46	0.916
2544.02	0.916
2554.58	0.913
2565.15	0.906
2575.71	0.905
2586.27	0.904
2596.84	0.906
2607.4	0.905
2617.96	0.901
2628.53	0.9
2639.09	0.897
2649.65	0.893
2660.22	0.892
2670.78	0.892
2681.34	0.896
2691.91	0.898
2702.47	0.897
2713.04	0.896
2723.6	0.891
2734.16	0.883
2744.73	0.88
2755.29	0.881
2765.85	0.881
2776.42	0.879
2786.98	0.876
2797.54	0.86
2808.11	0.849
2818.67	0.843
2829.23	0.845
2839.8	0.854
2850.36	0.859
2860.92	0.862
2871.49	0.862
2882.05	0.863
2892.61	0.858
2903.18	0.846
2913.74	0.816
2924.3	0.724
2934.87	0.72
2945.43	0.771
2955.99	0.838
2966.56	0.826
2977.12	0.814
2987.68	0.741
2998.25	0.759
3008.81	0.846
3019.37	0.847
3029.94	0.843
3040.5	0.841
3051.06	0.843
3061.63	0.835
3072.19	0.843
3082.75	0.853
3093.32	0.854
3103.88	0.855
3114.44	0.855
3125.01	0.851
3135.57	0.853
3146.13	0.85
3156.7	0.846
3167.26	0.837
3177.83	0.833
3188.39	0.824
3198.95	0.812
3209.52	0.801
3220.08	0.795
3230.64	0.782
3241.21	0.775
3251.77	0.762
3262.33	0.748
3272.9	0.738
3283.46	0.719
3294.02	0.706
3304.59	0.686
3315.15	0.665
3325.71	0.641
3336.28	0.616
3346.84	0.587
3357.4	0.555
3367.97	0.522
3378.53	0.485
3389.09	0.454
3399.66	0.412
3410.22	0.342
3420.78	0.293
3431.35	0.333
3441.91	0.43
3452.47	0.494
3463.04	0.541
3473.6	0.586
3484.16	0.632
3494.73	0.677
3505.29	0.723
3515.85	0.758
3526.42	0.793
3536.98	0.832
3547.54	0.864
3558.11	0.883
3568.67	0.9
3579.23	0.914
3589.8	0.921
3600.36	0.933
3610.92	0.937
3621.49	0.939
3632.05	0.946
3642.61	0.947
3653.18	0.95
3663.74	0.943
3674.31	0.939
3684.87	0.944
3695.43	0.947
3706	0.947
3716.56	0.943
3727.12	0.939
3737.69	0.938
3748.25	0.939
3758.81	0.939
3769.38	0.938
3779.94	0.937
3790.5	0.934
3801.07	0.934
3811.63	0.934
3822.19	0.934
3832.76	0.931
3843.32	0.921
3853.88	0.922
3864.45	0.922
3875.01	0.921
3885.57	0.918
3896.14	0.918
3906.7	0.917
3917.26	0.917
3927.83	0.917
3938.39	0.918
3948.95	0.919
3959.52	0.916
3970.08	0.916
3980.64	0.916
3991.21	0.916
