Infrared Spectrum: Acetamide, 9H-Purine-9-yl
Formula: C7 H7 N5 O
CAS: 99595-72-9
State: SOLID (0.6 mg / 650 mg KBr DISC)
Class: COBLENTZ III
Instrument: PERKIN-ELMER 21 (GRATING)
Instrument parameters: FILTER CHANGE ABOUT 1100 CM^-^1
Sampling: TRANSMISSION
Resolution: 2
Origin: SOUTHERN RESEARCH INSTITUTE
1/CM	TRANSMITTANCE
604.32	0.8189
613.348	0.8099
622.377	0.7988
631.405	0.7539
640.433	0.5737
649.461	0.8269
658.49	0.8789
667.518	0.8605
676.546	0.8435
685.574	0.8937
694.603	0.9278
703.631	0.9311
712.659	0.9245
721.687	0.9207
730.716	0.9203
739.744	0.9179
748.772	0.9109
757.8	0.9005
766.829	0.8863
775.857	0.8617
784.885	0.8117
793.914	0.6338
802.942	0.4734
811.97	0.6586
820.998	0.889
830.027	0.9223
839.055	0.9067
848.083	0.885
857.111	0.8248
866.14	0.7297
875.168	0.8804
884.196	0.8763
893.224	0.8034
902.253	0.6916
911.281	0.8993
920.309	0.889
929.337	0.8492
938.366	0.6942
947.394	0.9067
956.422	0.8999
965.45	0.8534
974.479	0.7251
983.507	0.8895
992.535	0.8936
1001.56	0.8917
1010.59	0.8876
1019.62	0.8796
1028.65	0.8634
1037.68	0.853
1046.7	0.8489
1055.73	0.8464
1064.76	0.8454
1073.79	0.8457
1082.82	0.8533
1091.85	0.7961
1100.87	0.6768
1109.9	0.7707
1118.93	0.8089
1127.96	0.7416
1136.99	0.7822
1146.02	0.7754
1155.04	0.7602
1164.07	0.7391
1173.1	0.6606
1182.13	0.48
1191.16	0.6735
1200.19	0.5194
1209.21	0.2739
1218.24	0.5991
1227.27	0.7338
1236.3	0.7276
1245.33	0.7028
1254.35	0.6041
1263.38	0.6438
1272.41	0.6718
1281.44	0.6436
1290.47	0.6274
1299.5	0.5495
1308.52	0.2589
1317.55	0.2508
1326.58	0.5378
1335.61	0.7427
1344.64	0.7417
1353.67	0.5534
1362.69	0.4257
1371.72	0.6603
1380.75	0.5264
1389.78	0.6336
1398.81	0.5423
1407.84	0.3674
1416.86	0.3584
1425.89	0.404
1434.92	0.6122
1443.95	0.6331
1452.98	0.7514
1462	0.7655
1471.03	0.773
1480.06	0.7605
1489.09	0.7461
1498.12	0.7049
1507.15	0.4603
1516.17	0.4866
1525.2	0.7825
1534.23	0.7844
1543.26	0.7685
1552.29	0.7429
1561.32	0.6777
1570.34	0.6212
1579.37	0.4594
1588.4	0.2196
1597.43	0.2363
1606.46	0.3674
1615.49	0.4698
1624.51	0.5356
1633.54	0.5982
1642.57	0.6085
1651.6	0.5891
1660.63	0.5117
1669.65	0.2877
1678.68	0.0805
1687.71	0.0949
1696.74	0.2367
1705.77	0.4586
1714.8	0.5866
1723.82	0.6284
1732.85	0.7232
1741.88	0.769
1750.91	0.7943
1759.94	0.8051
1768.97	0.805
1777.99	0.7903
1787.02	0.7941
1796.05	0.858
1805.08	0.8681
1814.11	0.8846
1823.14	0.8897
1832.16	0.8897
1841.19	0.89
1850.22	0.8887
1859.25	0.8923
1868.28	0.9012
1877.3	0.903
1886.33	0.8997
1895.36	0.8916
1904.39	0.8793
1913.42	0.8726
1922.45	0.8883
1931.47	0.8936
1940.5	0.8922
1949.53	0.8891
1958.56	0.8856
1967.59	0.8875
1976.62	0.893
1985.64	0.8961
1994.67	0.8971
2003.7	0.8971
2012.73	0.8961
2021.76	0.8949
2030.79	0.8929
2039.81	0.8902
2048.84	0.8888
2057.87	0.8887
2066.9	0.8892
2075.93	0.8905
2084.96	0.891
2093.98	0.8898
2103.01	0.8885
2112.04	0.8887
2121.07	0.8893
2130.1	0.8886
2139.12	0.8879
2148.15	0.8862
2157.18	0.8841
2166.21	0.8824
2175.24	0.8806
2184.27	0.8787
2193.29	0.8769
2202.32	0.8764
2211.35	0.8768
2220.38	0.8786
2229.41	0.8773
2238.44	0.8748
2247.46	0.8683
2256.49	0.8644
2265.52	0.8683
2274.55	0.8725
2283.58	0.8749
2292.61	0.8769
2301.63	0.8785
2310.66	0.8798
2319.69	0.8801
2328.72	0.8794
2337.75	0.8783
2346.77	0.8745
2355.8	0.8705
2364.83	0.866
2373.86	0.8591
2382.89	0.8497
2391.92	0.8503
2400.94	0.8505
2409.97	0.8483
2419	0.8458
2428.03	0.8426
2437.06	0.8396
2446.09	0.837
2455.11	0.8345
2464.14	0.8309
2473.17	0.8271
2482.2	0.8243
2491.23	0.8218
2500.26	0.8232
2509.28	0.8256
2518.31	0.8276
2527.34	0.8218
2536.37	0.8193
2545.4	0.8193
2554.42	0.8229
2563.45	0.8267
2572.48	0.8267
2581.51	0.8236
2590.54	0.8203
2599.57	0.8177
2608.59	0.8158
2617.62	0.8152
2626.65	0.8155
2635.68	0.8118
2644.71	0.8037
2653.74	0.7934
2662.76	0.7865
2671.79	0.784
2680.82	0.7844
2689.85	0.7871
2698.88	0.7881
2707.91	0.7847
2716.93	0.7809
2725.96	0.7763
2734.99	0.7695
2744.02	0.7621
2753.05	0.7544
2762.07	0.7496
2771.1	0.7436
2780.13	0.7354
2789.16	0.7305
2798.19	0.7267
2807.22	0.723
2816.24	0.7198
2825.27	0.7172
2834.3	0.7169
2843.33	0.7167
2852.36	0.7208
2861.39	0.7268
2870.41	0.7277
2879.44	0.7217
2888.47	0.7089
2897.5	0.6874
2906.53	0.6571
2915.56	0.6182
2924.58	0.6007
2933.61	0.6103
2942.64	0.6417
2951.67	0.6934
2960.7	0.7097
2969.72	0.7028
2978.75	0.6949
2987.78	0.7032
2996.81	0.7227
3005.84	0.7235
3014.87	0.7143
3023.89	0.7066
3032.92	0.6878
3041.95	0.6813
3050.98	0.6773
3060.01	0.6763
3069.04	0.6649
3078.06	0.6455
3087.09	0.6306
3096.12	0.6218
3105.15	0.6208
3114.18	0.6012
3123.21	0.5689
3132.23	0.5182
3141.26	0.479
3150.29	0.4466
3159.32	0.4296
3168.35	0.424
3177.37	0.4248
3186.4	0.4328
3195.43	0.4452
3204.46	0.4554
3213.49	0.4606
3222.52	0.464
3231.54	0.4662
3240.57	0.465
3249.6	0.4615
3258.63	0.4555
3267.66	0.4505
3276.69	0.4492
3285.71	0.4399
3294.74	0.4212
3303.77	0.3994
3312.8	0.3649
3321.83	0.3442
3330.86	0.322
3339.88	0.285
3348.91	0.246
3357.94	0.2274
3366.97	0.2217
3376	0.2257
3385.02	0.2428
3394.05	0.2881
3403.08	0.327
3412.11	0.3754
3421.14	0.4507
3430.17	0.4921
3439.19	0.5301
3448.22	0.5673
3457.25	0.5843
3466.28	0.5988
3475.31	0.6117
3484.34	0.6222
3493.36	0.6307
3502.39	0.6388
3511.42	0.6494
3520.45	0.6596
3529.48	0.6692
3538.51	0.6792
3547.53	0.6868
3556.56	0.6926
3565.59	0.7063
3574.62	0.7233
3583.65	0.7253
3592.67	0.731
3601.7	0.7385
3610.73	0.7463
3619.76	0.7566
3628.79	0.7667
3637.82	0.7755
3646.84	0.7836
3655.87	0.7908
3664.9	0.796
3673.93	0.7976
3682.96	0.8
3691.99	0.8009
3701.01	0.7976
3710.04	0.7951
3719.07	0.7979
3728.1	0.8037
3737.13	0.8089
3746.16	0.8122
3755.18	0.8112
3764.21	0.8068
3773.24	0.805
3782.27	0.805
3791.3	0.8026
3800.32	0.8014
3809.35	0.8011
3818.38	0.8026
3827.41	0.8077
3836.44	0.8088
3845.47	0.8083
3854.49	0.8068
3863.52	0.8043
3872.55	0.8011
3881.58	0.7972
3890.61	0.7981
3899.64	0.801
3908.66	0.7958
3917.69	0.792
3926.72	0.7953
3935.75	0.7987
3944.78	0.7967
3953.81	0.7869
3962.83	0.7824
3971.86	0.7819
3980.89	0.7832
3989.92	0.7842
3998.95	0.7838
4007.97	0.7788
