Infrared Spectrum: N,N-Diethylaminotrimethylsilane
Formula: C 7 H 19 N Si
CAS: 996-50-9
State: gas
Origin: EPA-IR VAPOR PHASE LIBRARY
1/CM	ABSORBANCE
501.5	0.00183
513.074	0.0008638
524.648	0.0005741
536.222	0.0004712
547.796	0.0005285
559.37	0.0004175
570.944	0.0004905
582.518	0.0006693
594.092	0.0007896
605.666	0.0008207
617.24	0.0008994
628.814	0.00126
640.388	0.00245
651.962	0.00649
663.536	0.01461
675.11	0.01912
686.684	0.01629
698.258	0.01119
709.832	0.0083
721.406	0.00865
732.98	0.0116
744.554	0.01637
756.128	0.0193
767.702	0.01752
779.276	0.01675
790.85	0.01862
802.423	0.01951
813.997	0.02966
825.571	0.06318
837.145	0.1016
848.719	0.08338
860.293	0.04492
871.867	0.02378
883.441	0.01542
895.015	0.01453
906.589	0.02605
918.163	0.05164
929.737	0.04624
941.311	0.01903
952.885	0.0084
964.459	0.00563
976.033	0.00511
987.607	0.00589
999.181	0.00953
1010.76	0.02131
1022.33	0.03846
1033.9	0.03713
1045.48	0.02367
1057.05	0.018
1068.63	0.01469
1080.2	0.0111
1091.77	0.01003
1103.35	0.01013
1114.92	0.00822
1126.49	0.00697
1138.07	0.00906
1149.64	0.01772
1161.22	0.03484
1172.79	0.04627
1184.36	0.04026
1195.94	0.03629
1207.51	0.02459
1219.09	0.01213
1230.66	0.01444
1242.23	0.02972
1253.81	0.04764
1265.38	0.04504
1276.96	0.02656
1288.53	0.01437
1300.1	0.00945
1311.68	0.00672
1323.25	0.00794
1334.83	0.01268
1346.4	0.016
1357.97	0.01773
1369.55	0.0254
1381.12	0.02571
1392.7	0.01364
1404.27	0.00748
1415.84	0.0058
1427.42	0.00511
1438.99	0.00569
1450.57	0.00747
1462.14	0.00822
1473.71	0.00662
1485.29	0.00392
1496.86	0.00247
1508.44	0.00204
1520.01	0.00172
1531.58	0.00137
1543.16	0.0011279
1554.73	0.0009938
1566.31	0.000961
1577.88	0.0010182
1589.45	0.0010514
1601.03	0.0009783
1612.6	0.0009048
1624.18	0.0007998
1635.75	0.0006989
1647.32	0.0006326
1658.9	0.0006019
1670.47	0.0005667
1682.05	0.0006431
1693.62	0.0006441
1705.19	0.0005793
1716.77	0.0004493
1728.34	0.0003893
1739.92	0.0003157
1751.49	0.0002921
1763.06	0.0003021
1774.64	0.0002888
1786.21	0.0002919
1797.79	0.0002876
1809.36	0.0003564
1820.93	0.0004388
1832.51	0.0006315
1844.08	0.0007368
1855.66	0.0006863
1867.23	0.0005842
1878.8	0.0004292
1890.38	0.0004004
1901.95	0.0005078
1913.53	0.0006706
1925.1	0.000822
1936.67	0.0008691
1948.25	0.0007829
1959.82	0.0006518
1971.4	0.0005251
1982.97	0.0004531
1994.54	0.0004153
2006.12	0.0004212
2017.69	0.0004059
2029.27	0.0003302
2040.84	0.0002777
2052.41	0.000318
2063.99	0.0003672
2075.56	0.0004858
2087.14	0.000534
2098.71	0.0005639
2110.28	0.0005662
2121.86	0.0004678
2133.43	0.0004012
2145.01	0.0003506
2156.58	0.000372
2168.15	0.0003485
2179.73	0.0004338
2191.3	0.0004514
2202.88	0.0004501
2214.45	0.000432
2226.02	0.0004079
2237.6	0.0003931
2249.17	0.00036
2260.74	0.0003351
2272.32	0.000393
2283.89	0.0003667
2295.47	0.0003605
2307.04	0.0002559
2318.61	0.0002638
2330.19	0.0002841
2341.76	0.0003366
2353.34	0.0003402
2364.91	0.0003639
2376.48	0.0003429
2388.06	0.0003198
2399.63	0.0002798
2411.21	0.0002915
2422.78	0.0002642
2434.35	0.00020444
2445.93	0.00022859
2457.5	0.00024279
2469.08	0.00025235
2480.65	0.000268
2492.22	0.0002871
2503.8	0.000292
2515.37	0.0002708
2526.95	0.0003036
2538.52	0.0003395
2550.09	0.0003482
2561.67	0.0003841
2573.24	0.0004579
2584.82	0.000505
2596.39	0.0005764
2607.96	0.0007388
2619.54	0.0009678
2631.11	0.0011224
2642.69	0.00118
2654.26	0.00135
2665.83	0.00159
2677.41	0.00209
2688.98	0.00262
2700.56	0.00289
2712.13	0.0029
2723.7	0.00279
2735.28	0.00275
2746.85	0.00281
2758.43	0.00306
2770	0.00371
2781.57	0.00502
2793.15	0.0071
2804.72	0.00958
2816.3	0.01235
2827.87	0.01567
2839.44	0.02021
2851.02	0.02675
2862.59	0.03445
2874.17	0.03775
2885.74	0.03591
2897.31	0.03572
2908.89	0.03744
2920.46	0.0401
2932.04	0.04729
2943.61	0.05497
2955.18	0.07327
2966.76	0.08977
2978.33	0.0699
2989.91	0.03389
3001.48	0.01514
3013.05	0.00934
3024.63	0.00736
3036.2	0.0063
3047.78	0.00564
3059.35	0.00511
3070.92	0.00468
3082.5	0.00435
3094.07	0.00395
3105.65	0.00354
3117.22	0.00307
3128.79	0.00273
3140.37	0.00239
3151.94	0.00207
3163.52	0.00171
3175.09	0.00143
3186.66	0.0011229
3198.24	0.0009581
3209.81	0.0008276
3221.39	0.0008206
3232.96	0.0006708
3244.53	0.0005054
3256.11	0.0004511
3267.68	0.0003836
3279.26	0.0003566
3290.83	0.0003397
3302.4	0.0003555
3313.98	0.0002268
3325.55	0.00020156
3337.13	0.00019106
3348.7	0.00021503
3360.27	0.00015263
3371.85	9.38e-05
3383.42	9.31e-05
3395	0.00015754
3406.57	7.2e-05
3418.14	7.2e-05
3429.72	3.9e-05
3441.29	0.0001088
3452.86	6.46e-05
3464.44	7.65e-05
3476.01	1e-06
3487.59	7.24e-05
3499.16	0.0001082
3510.73	7e-05
3522.31	9.26e-05
3533.88	0.00017165
3545.46	0.00015187
3557.03	0.00019364
3568.6	0.0002779
3580.18	0.0003414
3591.75	0.0003043
3603.33	0.0003687
3614.9	0.000415
3626.47	0.0005117
3638.05	0.0006583
3649.62	0.0005484
3661.2	0.0005439
3672.77	0.0004762
3684.34	0.0004619
3695.92	0.0004948
3707.49	0.0004862
3719.07	0.0006229
3730.64	0.0006466
3742.21	0.0006158
3753.79	0.0006461
3765.36	0.0004778
3776.94	0.0005109
3788.51	0.0004345
3800.08	0.0004591
3811.66	0.0003862
3823.23	0.00024846
3834.81	0.00020105
3846.38	0.0001222
3857.95	0.00024355
3869.53	0.0001325
3881.1	0.00017392
3892.68	0.0002735
3904.25	0.0001958
3915.82	0.00015367
3927.4	0.0002537
3938.97	0.0003059
3950.55	0.0002785
3962.12	0.0002804
3973.69	0.0003189
3985.27	0.0003072
3996.84	0.0003256
