Infrared Spectrum: Silane, di-n-butyl-dimethyl-,
Formula: C10 H24 Si
CAS: 996-06-5
State: SOLUTION (11% CCl4 FOR 3800-1300, 5% CS2 FOR 1300-570, AND 11% CCl4 FOR 440-250)
Class: COBLENTZ III
Instrument: PERKIN-ELMER 521 (GRATING)
Instrument parameters: FILTERS AT 3150, 2500, 2000, 1150, 700, 410. GRATING CHANGES: 2000, 630
Path length: 0.012 CM, 0.010 CM, AND 0.011 CM
Resolution: 2
Origin: DOW CORNING CORP.
1/CM	TRANSMITTANCE
249	0.8154
258	0.8212
267	0.8322
276	0.8422
285	0.8476
294	0.8569
303	0.8711
312	0.8759
321	0.8799
330	0.8825
339	0.8859
348	0.88
357	0.889
366	0.9328
375	0.9507
384	0.9512
393	0.9496
402	0.9186
411	0.9064
420	0.905
429	0.8775
438	0.9029
447	0.9411
456	0.9627
465	0.96
474	0.9656
483	0.9819
492	0.9879
501	0.9875
510	0.9872
519	0.9868
528	0.9864
537	0.986
546	0.9856
555	0.9852
564	0.9848
573	0.9781
582	0.9543
591	0.9807
600	0.9629
609	0.9266
618	0.9433
627	0.9382
636	0.9066
645	0.8989
654	0.9206
663	0.8983
672	0.8911
681	0.8013
690	0.7627
699	0.735
708	0.7846
717	0.7711
726	0.7067
735	0.7027
744	0.7629
753	0.7549
762	0.6888
771	0.5964
780	0.4105
789	0.5923
798	0.6818
807	0.4863
816	0.3673
825	0.3354
834	0.2649
843	0.6297
852	0.6585
861	0.6067
870	0.5017
879	0.3742
888	0.6082
897	0.8246
906	0.888
915	0.9085
924	0.9187
933	0.9226
942	0.9188
951	0.8809
960	0.7389
969	0.9058
978	0.9106
987	0.8769
996	0.7718
1005	0.843
1014	0.8063
1023	0.7953
1032	0.8548
1041	0.8561
1050	0.841
1059	0.8311
1068	0.8075
1077	0.6235
1086	0.8437
1095	0.8902
1104	0.8988
1113	0.8981
1122	0.9013
1131	0.9061
1140	0.9084
1149	0.8978
1158	0.8875
1167	0.8274
1176	0.7872
1185	0.6945
1194	0.7993
1203	0.8702
1212	0.8845
1221	0.8717
1230	0.8128
1239	0.3405
1248	0.4339
1257	0.7811
1266	0.8176
1275	0.856
1284	0.8322
1293	0.7983
1302	0.7629
1311	0.8116
1320	0.8305
1329	0.7919
1338	0.5864
1347	0.7701
1356	0.7956
1365	0.7588
1374	0.3193
1383	0.7244
1392	0.7012
1401	0.582
1410	0.4671
1419	0.5906
1428	0.6743
1437	0.6269
1446	0.5131
1455	0.2476
1464	0.1793
1473	0.697
1482	0.8021
1491	0.8347
1500	0.8509
1509	0.8609
1518	0.8702
1527	0.8692
1536	0.8646
1545	0.8696
1554	0.8861
1563	0.8981
1572	0.8981
1581	0.8988
1590	0.9065
1599	0.9101
1608	0.9108
1617	0.9098
1626	0.9081
1635	0.906
1644	0.9033
1653	0.9002
1662	0.9
1671	0.904
1680	0.9096
1689	0.9144
1698	0.9163
1707	0.9163
1716	0.9147
1725	0.9175
1734	0.923
1743	0.9258
1752	0.9267
1761	0.9277
1770	0.9288
1779	0.9282
1788	0.9274
1797	0.9273
1806	0.9273
1815	0.9273
1824	0.9268
1833	0.9259
1842	0.9243
1851	0.919
1860	0.9169
1869	0.9208
1878	0.9257
1887	0.927
1896	0.9265
1905	0.9235
1914	0.9197
1923	0.9144
1932	0.9117
1941	0.9157
1950	0.9205
1959	0.9264
1968	0.928
1977	0.9279
1986	0.9273
1995	0.9285
2004	0.937
2013	0.9376
2022	0.9376
2031	0.937
2040	0.9375
2049	0.939
2058	0.9423
2067	0.9429
2076	0.9422
2085	0.942
2094	0.9419
2103	0.9425
2112	0.943
2121	0.9434
2130	0.9441
2139	0.9441
2148	0.9423
2157	0.9405
2166	0.9399
2175	0.9396
2184	0.9396
2193	0.9398
2202	0.9401
2211	0.9405
2220	0.941
2229	0.9413
2238	0.9416
2247	0.9419
2256	0.9424
2265	0.9429
2274	0.943
2283	0.9426
2292	0.9423
2301	0.9404
2310	0.9384
2319	0.9364
2328	0.9346
2337	0.9327
2346	0.9332
2355	0.9341
2364	0.9357
2373	0.9381
2382	0.9386
2391	0.9384
2400	0.9382
2409	0.938
2418	0.9378
2427	0.9375
2436	0.9362
2445	0.9345
2454	0.9323
2463	0.9295
2472	0.9267
2481	0.9283
2490	0.9297
2499	0.9304
2508	0.9302
2517	0.93
2526	0.9303
2535	0.9305
2544	0.9304
2553	0.9298
2562	0.9284
2571	0.9208
2580	0.9127
2589	0.9036
2598	0.9023
2607	0.902
2616	0.9
2625	0.8945
2634	0.892
2643	0.8914
2652	0.8907
2661	0.8907
2670	0.8909
2679	0.8969
2688	0.903
2697	0.8993
2706	0.8792
2715	0.8725
2724	0.8443
2733	0.8484
2742	0.856
2751	0.8492
2760	0.8406
2769	0.8269
2778	0.7907
2787	0.69
2796	0.6237
2805	0.6567
2814	0.6465
2823	0.6211
2832	0.5771
2841	0.405
2850	0.082
2859	0.0528
2868	0.0462
2877	0.0194
2886	0.1071
2895	0.0738
2904	0.0003
2913	0.0004
2922	0.0005
2931	0.0099
2940	0.0415
2949	0.0007
2958	0.0001
2967	0.0113
2976	0.2251
2985	0.4597
2994	0.5653
3003	0.6772
3012	0.725
3021	0.7545
3030	0.7754
3039	0.798
3048	0.8183
3057	0.8323
3066	0.8442
3075	0.853
3084	0.8592
3093	0.8655
3102	0.8719
3111	0.8817
3120	0.8905
3129	0.8932
3138	0.8935
3147	0.8934
3156	0.8955
3165	0.9004
3174	0.9061
3183	0.9116
3192	0.9164
3201	0.9211
3210	0.9256
3219	0.9299
3228	0.9334
3237	0.9367
3246	0.9391
3255	0.9393
3264	0.9396
3273	0.9415
3282	0.9426
3291	0.9426
3300	0.9408
3309	0.939
3318	0.9372
3327	0.9366
3336	0.9363
3345	0.9359
3354	0.9361
3363	0.9368
3372	0.9375
3381	0.9379
3390	0.9384
3399	0.9388
3408	0.9393
3417	0.9397
3426	0.9402
3435	0.9406
3444	0.9409
3453	0.941
3462	0.941
3471	0.9401
3480	0.9392
3489	0.9383
3498	0.9373
3507	0.9359
3516	0.9345
3525	0.9341
3534	0.9342
3543	0.9343
3552	0.9343
3561	0.9341
3570	0.9339
3579	0.9336
3588	0.9325
3597	0.9311
3606	0.9298
3615	0.9282
3624	0.9264
3633	0.9246
3642	0.923
3651	0.9223
3660	0.9217
3669	0.9214
3678	0.9213
3687	0.9212
3696	0.9208
3705	0.9201
3714	0.9196
3723	0.9199
3732	0.9227
3741	0.9286
3750	0.9228
3759	0.9221
3768	0.9241
3777	0.9279
3786	0.9306
3795	0.9313
3804	0.9309
