Infrared Spectrum: 1-(Thien-2-yl)but-1-en-3-one
Formula: C 8 H 8 O S
CAS: 99768-07-7
State: gas
Origin: EPA-IR VAPOR PHASE LIBRARY
1/CM	ABSORBANCE
549.8	0.02093
559.445	0.02127
569.09	0.00645
578.734	0.00412
588.379	0.00401
598.024	0.00326
607.669	0.00304
617.313	0.00358
626.958	0.00301
636.603	0.00274
646.248	0.0028
655.893	0.00255
665.537	0.00482
675.182	0.00772
684.827	0.02121
694.472	0.04015
704.116	0.03731
713.761	0.0199
723.406	0.0066
733.051	0.00377
742.695	0.00527
752.34	0.00463
761.985	0.0039
771.63	0.00288
781.275	0.00348
790.919	0.0052
800.564	0.0071
810.209	0.00999
819.854	0.00979
829.498	0.00598
839.143	0.00635
848.788	0.01093
858.433	0.01233
868.078	0.0064
877.722	0.00428
887.367	0.00457
897.012	0.00511
906.657	0.00534
916.301	0.00583
925.946	0.00649
935.591	0.00715
945.236	0.0125
954.88	0.02447
964.525	0.03138
974.17	0.02114
983.815	0.01187
993.46	0.0091
1003.1	0.00866
1012.75	0.00617
1022.39	0.00576
1032.04	0.00878
1041.68	0.01276
1051.33	0.00985
1060.97	0.00541
1070.62	0.00388
1080.26	0.00576
1089.91	0.00562
1099.55	0.00534
1109.2	0.00752
1118.84	0.00548
1128.49	0.0101
1138.13	0.01449
1147.78	0.01878
1157.42	0.02983
1167.07	0.03951
1176.71	0.02686
1186.36	0.02292
1196	0.0356
1205.64	0.03252
1215.29	0.02602
1224.93	0.02543
1234.58	0.03654
1244.22	0.0598
1253.87	0.04792
1263.51	0.02306
1273.16	0.0236
1282.8	0.02336
1292.45	0.02017
1302.09	0.02121
1311.74	0.01172
1321.38	0.00654
1331.03	0.00686
1340.67	0.01013
1350.32	0.02067
1359.96	0.03541
1369.61	0.03139
1379.25	0.01678
1388.9	0.01272
1398.54	0.0111
1408.18	0.01
1417.83	0.01138
1427.47	0.01131
1437.12	0.0084
1446.76	0.0061
1456.41	0.00487
1466.05	0.00391
1475.7	0.00367
1485.34	0.00397
1494.99	0.00433
1504.63	0.00602
1514.28	0.00802
1523.92	0.00734
1533.57	0.00528
1543.21	0.00549
1552.86	0.00547
1562.5	0.00638
1572.15	0.0092
1581.79	0.01778
1591.44	0.03997
1601.08	0.08639
1610.73	0.09988
1620.37	0.05553
1630.01	0.02403
1639.66	0.01306
1649.3	0.01191
1658.95	0.01323
1668.59	0.01808
1678.24	0.03642
1687.88	0.06512
1697.53	0.06755
1707.17	0.05409
1716.82	0.03684
1726.46	0.01752
1736.11	0.01003
1745.75	0.00738
1755.4	0.00543
1765.04	0.00422
1774.69	0.00451
1784.33	0.00578
1793.98	0.00594
1803.62	0.00438
1813.27	0.00326
1822.91	0.00256
1832.55	0.00233
1842.2	0.00243
1851.84	0.0024
1861.49	0.00243
1871.13	0.00244
1880.78	0.00233
1890.42	0.00263
1900.07	0.00268
1909.71	0.00279
1919.36	0.00268
1929	0.00249
1938.65	0.0023
1948.29	0.0017767
1957.94	0.0019946
1967.58	0.0015937
1977.23	0.001649
1986.87	0.0018821
1996.52	0.0019912
2006.16	0.0017134
2015.81	0.0018221
2025.45	0.0015076
2035.1	0.0017219
2044.74	0.001795
2054.38	0.0014735
2064.03	0.0016864
2073.67	0.001621
2083.32	0.0016505
2092.96	0.0016714
2102.61	0.001566
2112.25	0.0015891
2121.9	0.0015657
2131.54	0.0016105
2141.19	0.0015631
2150.83	0.001475
2160.48	0.0020199
2170.12	0.001745
2179.77	0.0016192
2189.41	0.0014936
2199.06	0.00120121
2208.7	0.0014021
2218.35	0.0013356
2227.99	0.0011938
2237.64	0.0014643
2247.28	0.0014665
2256.92	0.0011874
2266.57	0.0015155
2276.21	0.0013247
2285.86	0.0014357
2295.5	0.001022
2305.15	0.00126205
2314.79	0.00124808
2324.44	0.0013835
2334.08	0.0016807
2343.73	0.00124059
2353.37	0.001035
2363.02	0.0011795
2372.66	0.00121003
2382.31	0.001517
2391.95	0.00123218
2401.6	0.0015723
2411.24	0.001166
2420.89	0.0015186
2430.53	0.001516
2440.18	0.00120532
2449.82	0.0014844
2459.47	0.0018992
2469.11	0.0016477
2478.75	0.0014533
2488.4	0.0015931
2498.04	0.0014224
2507.69	0.0014615
2517.33	0.0011948
2526.98	0.0011748
2536.62	0.0011812
2546.27	0.001099
2555.91	0.00125866
2565.56	0.000954
2575.2	0.000929
2584.85	0.00084
2594.49	0.000998
2604.14	0.00123298
2613.78	0.0013593
2623.43	0.000969
2633.07	0.00122028
2642.72	0.00120798
2652.36	0.001051
2662.01	0.0013693
2671.65	0.001393
2681.29	0.000991
2690.94	0.000849
2700.58	0.000988
2710.23	0.0011988
2719.87	0.000608
2729.52	0.00083
2739.16	0.000761
2748.81	0.000871
2758.45	0.000957
2768.1	0.000675
2777.74	0.000879
2787.39	0.0011871
2797.03	0.00121337
2806.68	0.00127966
2816.32	0.001012
2825.97	0.0011543
2835.61	0.001543
2845.26	0.0014553
2854.9	0.0015412
2864.55	0.0016648
2874.19	0.00224
2883.84	0.0017906
2893.48	0.0020745
2903.12	0.0016699
2912.77	0.00225
2922.41	0.00302
2932.06	0.00316
2941.7	0.00314
2951.35	0.00267
2960.99	0.00322
2970.64	0.0029
2980.28	0.00327
2989.93	0.00271
2999.57	0.00349
3009.22	0.00531
3018.86	0.006
3028.51	0.00535
3038.15	0.00605
3047.8	0.00517
3057.44	0.00393
3067.09	0.0041
3076.73	0.00629
3086.38	0.00727
3096.02	0.00484
3105.67	0.0032
3115.31	0.0020636
3124.95	0.000958
3134.6	0.00127909
3144.24	0.000926
3153.89	0.0011151
3163.53	0.000954
3173.18	0.000651
3182.82	0.0014251
3192.47	0.0011741
3202.11	0.001001
3211.76	0.000921
3221.4	0.0011935
3231.05	0.000858
3240.69	0.001032
3250.34	0.001007
3259.98	0.000898
3269.63	0.001098
3279.27	0.00073
3288.92	0.000938
3298.56	0.0011147
3308.21	0.0016786
3317.85	0.0011345
3327.49	0.001077
3337.14	0.0014483
3346.78	0.002168
3356.43	0.0013553
3366.07	0.0020618
3375.72	0.0014051
3385.36	0.0021792
3395.01	0.0018666
3404.65	0.0015223
3414.3	0.000913
3423.94	0.0015222
3433.59	0.0011341
3443.23	0.00069
3452.88	0.00073
3462.52	0.000778
3472.17	0.000747
3481.81	0.0017085
3491.46	0.00127292
3501.1	0.0014043
3510.75	0.000659
3520.39	0.00122119
3530.04	0.00125295
3539.68	0.00129355
3549.32	0.0014982
3558.97	0.00121686
3568.61	0.00121259
3578.26	0.000992
3587.9	0.00130362
3597.55	0.00122573
3607.19	0.001008
3616.84	0.0011939
3626.48	0.000893
3636.13	0.00122997
3645.77	0.000946
3655.42	0.001049
3665.06	0.0015484
3674.71	0.00124667
3684.35	0.0011805
3694	0.0011608
3703.64	0.000895
3713.29	0.0014429
3722.93	0.00122272
3732.58	0.00128125
3742.22	0.000946
3751.86	0.000379
3761.51	0.000837
3771.15	1e-05
3780.8	0.000849
3790.44	0.000379
3800.09	0.000971
3809.73	0.000887
3819.38	0.00122663
3829.02	0.000476
3838.67	0.0016082
3848.31	0.0013448
3857.96	0.000898
3867.6	0.000763
3877.25	0.00128382
3886.89	0.000409
3896.54	0.00126844
3906.18	0.001082
3915.83	0.001008
3925.47	0.0012946
3935.12	0.0018705
3944.76	0.0014378
3954.41	0.0016273
3964.05	0.000964
3973.69	0.001147
3983.34	0.000965
3992.98	0.0009
