Infrared Spectrum: Silane, tributyl-,
Formula: C12 H28 Si
CAS: 998-41-4
State: SOLUTION (10% CCl4 FOR 3800-1335, 10% CS2 FOR 1335-400 CM^-^1) VS SOLVENT
Class: COBLENTZ III
Instrument: DOW KBr FOREPRISM-GRATING
Instrument parameters: BLAZED AT 3.5, 12.0, 20.0 MICRON AND CHANGED AT 5.0, 7.5, 14.9 MICRON
Sampling: TRANSMISSION
Path length: 0.011 CM, 0.011 CM
Resolution: 2
Origin: DOW CHEMICAL COMPANY
1/CM	TRANSMITTANCE
3766	0.8844
3757	0.8853
3748	0.8865
3739	0.8878
3730	0.8897
3721	0.8912
3712	0.8924
3703	0.8905
3694	0.8843
3685	0.88
3676	0.8846
3667	0.8863
3658	0.8851
3649	0.8833
3640	0.8816
3631	0.885
3622	0.8863
3613	0.8867
3604	0.8857
3595	0.8839
3586	0.8893
3577	0.9064
3568	0.8878
3559	0.8818
3550	0.8798
3541	0.8821
3532	0.8846
3523	0.8854
3514	0.8836
3505	0.8811
3496	0.88
3487	0.8817
3478	0.8831
3469	0.8835
3460	0.8818
3451	0.8816
3442	0.8832
3433	0.8852
3424	0.8851
3415	0.8833
3406	0.8818
3397	0.882
3388	0.8816
3379	0.8808
3370	0.8784
3361	0.8753
3352	0.8743
3343	0.8737
3334	0.8716
3325	0.869
3316	0.8671
3307	0.8673
3298	0.8678
3289	0.8673
3280	0.863
3271	0.8556
3262	0.8539
3253	0.852
3244	0.8499
3235	0.8471
3226	0.843
3217	0.838
3208	0.8362
3199	0.8321
3190	0.8263
3181	0.8202
3172	0.815
3163	0.8119
3154	0.8084
3145	0.8025
3136	0.7964
3127	0.7942
3118	0.7942
3109	0.7945
3100	0.7928
3091	0.7898
3082	0.7853
3073	0.7808
3064	0.7765
3055	0.7724
3046	0.7634
3037	0.7505
3028	0.7361
3019	0.7186
3010	0.6924
3001	0.6603
2992	0.5868
2983	0.451
2974	0.2588
2965	0.0238
2956	0.0094
2947	0.0847
2938	0.092
2929	0.0226
2920	0.0085
2911	0.0088
2902	0.0529
2893	0.0957
2884	0.1223
2875	0.0687
2866	0.0632
2857	0.0692
2848	0.0798
2839	0.206
2830	0.4741
2821	0.5532
2812	0.606
2803	0.6269
2794	0.5926
2785	0.6387
2776	0.7228
2767	0.7524
2758	0.7597
2749	0.7656
2740	0.7706
2731	0.7689
2722	0.761
2713	0.791
2704	0.7936
2695	0.8083
2686	0.8228
2677	0.8262
2668	0.8108
2659	0.8061
2650	0.8131
2641	0.8189
2632	0.8181
2623	0.8043
2614	0.811
2605	0.8214
2596	0.8243
2587	0.8256
2578	0.8357
2569	0.8468
2560	0.853
2551	0.86
2542	0.8637
2533	0.8637
2524	0.8633
2515	0.8628
2506	0.8635
2497	0.8677
2488	0.8732
2479	0.8712
2470	0.8718
2461	0.8737
2452	0.8771
2443	0.88
2434	0.88
2425	0.8784
2416	0.8796
2407	0.8839
2398	0.8862
2389	0.8866
2380	0.8862
2371	0.8935
2362	0.906
2353	0.9153
2344	0.9186
2335	0.92
2326	0.9227
2317	0.9239
2308	0.9155
2299	0.9056
2290	0.9004
2281	0.9021
2272	0.9021
2263	0.8995
2254	0.8978
2245	0.8967
2236	0.8968
2227	0.8971
2218	0.8971
2209	0.8938
2200	0.8841
2191	0.8777
2182	0.8704
2173	0.8571
2164	0.841
2155	0.785
2146	0.7341
2137	0.6771
2128	0.5797
2119	0.4418
2110	0.2706
2101	0.1854
2092	0.1909
2083	0.336
2074	0.5105
2065	0.7208
2056	0.7946
2047	0.8371
2038	0.8639
2029	0.877
2020	0.8858
2011	0.891
2002	0.893
1993	0.866
1984	0.879
1975	0.8683
1966	0.8663
1957	0.8665
1948	0.8683
1939	0.8732
1930	0.8778
1921	0.8777
1912	0.8756
1903	0.8766
1894	0.8815
1885	0.8843
1876	0.8865
1867	0.888
1858	0.8891
1849	0.8894
1840	0.8898
1831	0.8898
1822	0.8898
1813	0.8899
1804	0.8905
1795	0.8912
1786	0.8916
1777	0.8917
1768	0.8918
1759	0.892
1750	0.892
1741	0.8913
1732	0.8849
1723	0.8805
1714	0.8805
1705	0.8811
1696	0.8812
1687	0.8811
1678	0.8808
1669	0.88
1660	0.8791
1651	0.8781
1642	0.8784
1633	0.8796
1624	0.8768
1615	0.8731
1606	0.8739
1597	0.8797
1588	0.8734
1579	0.8495
1570	0.8291
1561	0.8477
1552	0.8511
1543	0.828
1534	0.831
1525	0.8378
1516	0.8484
1507	0.8453
1498	0.8268
1489	0.8068
1480	0.7741
1471	0.6982
1462	0.1568
1453	0.2369
1444	0.5136
1435	0.6883
1426	0.7349
1417	0.724
1408	0.4226
1399	0.5895
1390	0.7261
1381	0.6869
1372	0.3592
1363	0.7617
1354	0.7643
1345	0.7487
1336	0.5786
1327	0.6821
1318	0.7891
1309	0.8111
1300	0.8015
1291	0.7451
1282	0.6574
1273	0.7847
1264	0.7586
1255	0.761
1246	0.8197
1237	0.8389
1228	0.852
1219	0.8538
1210	0.8421
1201	0.78
1192	0.5346
1183	0.4535
1174	0.571
1165	0.6079
1156	0.8024
1147	0.8456
1138	0.8691
1129	0.8797
1120	0.8838
1111	0.8777
1102	0.8651
1093	0.8391
1084	0.7439
1075	0.3322
1066	0.4981
1057	0.6912
1048	0.7161
1039	0.7272
1030	0.7021
1021	0.5466
1012	0.6484
1003	0.746
994	0.6004
985	0.7067
976	0.8428
967	0.8494
958	0.5871
949	0.793
940	0.8581
931	0.87
922	0.8568
913	0.8028
904	0.6166
895	0.2189
886	0.0458
877	0.2683
868	0.4453
859	0.5475
850	0.6412
841	0.7211
832	0.5966
823	0.2955
814	0.1404
805	0.1245
796	0.2473
787	0.5489
778	0.6287
769	0.6525
760	0.6612
751	0.5595
742	0.5548
733	0.4927
724	0.4755
715	0.4898
706	0.5402
697	0.6872
688	0.7458
679	0.7662
670	0.7917
661	0.8158
652	0.836
643	0.8666
634	0.873
625	0.8587
616	0.8321
607	0.8411
598	0.8834
589	0.9287
580	0.9478
571	0.9583
562	0.9647
553	0.9708
544	0.9737
535	0.9749
526	0.9738
517	0.9734
508	0.9751
499	0.9775
490	0.9796
481	0.9796
472	0.9751
463	0.9608
454	0.955
445	0.9555
436	0.9548
427	0.9486
418	0.9511
409	0.9558
400	0.9571
391	0.959
382	0.9621
