Infrared Spectrum: 4-Methyl-1,5-Heptadiene
Formula: C 8 H 14
CAS: 998-94-7
State: gas
Instrument: HP-GC/MS/IRD
Origin: NIST Mass Spectrometry Data Center
1/CM	ABSORBANCE
550	0.0005225
562	0.0002299
574	0.0004427
586	0.0002945
598	0.0002337
610	0.000551
622	0.0007296
634	0.000779
646	0.0007391
658	0.0004978
670	0.0003762
682	0.0001083
694	0.000114
706	0.0001026
718	0.0001976
730	6.46e-05
742	1.33e-05
754	2.85e-05
766	5.13e-05
778	1.71e-05
790	0.0001577
802	0.0001577
814	0.0002375
826	0.0003268
838	0.0005776
850	0.0007163
862	0.0008816
874	0.0012464
886	0.0019589
898	0.0038418
910	0.0071174
922	0.0067944
934	0.0043434
946	0.0047006
958	0.0074062
970	0.0091998
982	0.0074024
994	0.0050958
1006	0.0030495
1018	0.0018658
1030	0.0014706
1042	0.0011799
1054	0.001026
1066	0.0008683
1078	0.0006992
1090	0.0006631
1102	0.0005738
1114	0.0005719
1126	0.0006213
1138	0.0005928
1150	0.0005852
1162	0.0004655
1174	0.0004085
1186	0.0003002
1198	0.0003667
1210	0.0005149
1222	0.0006099
1234	0.0004959
1246	0.0004484
1258	0.0006099
1270	0.0007239
1282	0.000722
1294	0.0007505
1306	0.0008512
1318	0.0008854
1330	0.0011001
1342	0.0012312
1354	0.0011742
1366	0.0016226
1378	0.0023294
1390	0.0020995
1402	0.0014668
1414	0.0015333
1426	0.0020007
1438	0.0031635
1450	0.0040413
1462	0.0035112
1474	0.0021527
1486	0.0011324
1498	0.0007524
1510	0.0005529
1522	0.0004959
1534	0.0004123
1546	0.0003914
1558	0.0003762
1570	0.0002926
1582	0.0003439
1594	0.0003306
1606	0.0004921
1618	0.0008949
1630	0.0021603
1642	0.0027626
1654	0.0014307
1666	0.000608
1678	0.0003686
1690	0.0002432
1702	0.0002432
1714	0.0002679
1726	0.0003591
1738	0.0004541
1750	0.0004085
1762	0.0003097
1774	0.0002337
1786	0.0001957
1798	0.0002375
1810	0.0003781
1822	0.0007581
1834	0.0009196
1846	0.0005016
1858	0.0002071
1870	0.0001463
1882	8.55e-05
1894	7.6e-05
1906	9.12e-05
1918	6.65e-05
1930	4.18e-05
1942	3.99e-05
1954	8.55e-05
1966	0.0001273
1978	0.0001406
1990	0.0001311
2002	0.0001083
2014	0.0001083
2026	3.99e-05
2038	6.84e-05
2050	3.04e-05
2062	4.94e-05
2074	2.28e-05
2086	9.5e-06
2098	2.28e-05
2110	1.71e-05
2122	1.33e-05
2134	3.61e-05
2146	3.04e-05
2158	3.23e-05
2170	7.6e-06
2182	4.37e-05
2194	1.52e-05
2206	2.28e-05
2218	1.14e-05
2230	2.66e-05
2242	3.42e-05
2254	2.09e-05
2266	4.75e-05
2278	4.56e-05
2290	1.52e-05
2302	5.13e-05
2314	3.99e-05
2326	3.61e-05
2338	4.37e-05
2350	4.94e-05
2362	4.94e-05
2374	4.56e-05
2386	3.61e-05
2398	3.61e-05
2410	7.41e-05
2422	5.7e-05
2434	3.42e-05
2446	1.71e-05
2458	3.04e-05
2470	6.08e-05
2482	7.98e-05
2494	4.37e-05
2506	6.46e-05
2518	6.46e-05
2530	6.84e-05
2542	7.22e-05
2554	4.18e-05
2566	6.65e-05
2578	9.5e-05
2590	0.0001121
2602	6.08e-05
2614	5.89e-05
2626	7.98e-05
2638	7.03e-05
2650	7.79e-05
2662	0.0001007
2674	0.0001178
2686	0.000133
2698	0.0001691
2710	0.0002128
2722	0.0002926
2734	0.0004921
2746	0.000532
2758	0.0003933
2770	0.0003477
2782	0.0004199
2794	0.0005339
2806	0.0007562
2818	0.0011172
2830	0.0018373
2842	0.0029906
2854	0.0045334
2866	0.0075373
2878	0.0095171
2890	0.0101061
2902	0.0117059
2914	0.0147649
2926	0.0172254
2938	0.0151506
2950	0.0128003
2962	0.016739
2974	0.0186333
2986	0.0129865
2998	0.0083448
3010	0.0066063
3022	0.0054739
3034	0.0045068
3046	0.0035701
3058	0.0032699
3070	0.0041173
3082	0.0055119
3094	0.0040527
3106	0.0016093
3118	0.0009975
3130	0.0008208
3142	0.0007239
3154	0.0005263
3166	0.0004256
3178	0.0003477
3190	0.0002508
3202	0.0002033
3214	0.0001311
3226	0.0001672
3238	0.000114
3250	0.0001026
3262	6.65e-05
3274	9.69e-05
3286	0.0001102
3298	0.0001007
3310	6.46e-05
3322	7.6e-05
3334	8.74e-05
3346	5.13e-05
3358	8.55e-05
3370	2.47e-05
3382	8.17e-05
3394	9.5e-05
3406	7.79e-05
3418	0.000114
3430	6.46e-05
3442	4.37e-05
3454	7.41e-05
3466	7.22e-05
3478	5.32e-05
3490	7.03e-05
3502	8.74e-05
3514	7.6e-05
3526	0.0001007
3538	5.32e-05
3550	9.31e-05
3562	5.32e-05
3574	7.6e-05
3586	8.93e-05
3598	6.46e-05
3610	7.6e-06
3622	7.79e-05
3634	9.69e-05
3646	0.0001102
3658	6.84e-05
3670	4.18e-05
3682	4.18e-05
3694	5.32e-05
3706	6.65e-05
3718	7.98e-05
3730	9.12e-05
3742	5.32e-05
3754	0.0001216
3766	9.69e-05
3778	5.7e-05
3790	7.79e-05
3802	8.36e-05
3814	0.0001197
3826	0.0001026
3838	7.79e-05
