Infrared Spectrum: 4-Bromoheptane
Formula: C 7 H 15 Br
CAS: 998-93-6
State: gas
Instrument: HP-GC/MS/IRD
Origin: NIST Mass Spectrometry Data Center
1/CM	ABSORBANCE
550	0.00053
562	0.000174
574	0.000128
586	0.00023
598	0.000394
610	0.000796
622	0.000728
634	0.000314
646	8.4e-05
658	2.2e-05
670	0.000168
682	8.8e-05
694	5e-05
706	2.6e-05
718	0.000124
730	0.000272
742	0.00071
754	0.001256
766	0.001072
778	0.000486
790	0.000246
802	5.2e-05
814	0.000116
826	0.000294
838	0.000182
850	0.000254
862	0.000376
874	0.000516
886	0.000592
898	0.000588
910	0.000376
922	0.000168
934	0.000146
946	0.000234
958	0.000366
970	0.000292
982	0.000186
994	0.000132
1006	0.000142
1018	0.000132
1030	0.000122
1042	0.000142
1054	0.00029
1066	0.000288
1078	0.000396
1090	0.00041
1102	0.000294
1114	0.000568
1126	0.00093
1138	0.001194
1150	0.000826
1162	0.000466
1174	0.001242
1186	0.002318
1198	0.001766
1210	0.000618
1222	0.000452
1234	0.000624
1246	0.001118
1258	0.001764
1270	0.001606
1282	0.001102
1294	0.001034
1306	0.00091
1318	0.000682
1330	0.00057
1342	0.000644
1354	0.000696
1366	0.000694
1378	0.001026
1390	0.001172
1402	0.000668
1414	0.000544
1426	0.000856
1438	0.00144
1450	0.00199
1462	0.002764
1474	0.002148
1486	0.000906
1498	0.000428
1510	0.000256
1522	0.000262
1534	0.000218
1546	0.000198
1558	0.000174
1570	0.000132
1582	0.000124
1594	0.000116
1606	0.000106
1618	8.8e-05
1630	9.6e-05
1642	7.6e-05
1654	5.4e-05
1666	7e-05
1678	6e-05
1690	4.8e-05
1702	4.6e-05
1714	2.4e-05
1726	4.2e-05
1738	2e-05
1750	0
1762	3.2e-05
1774	3.8e-05
1786	3.6e-05
1798	3.8e-05
1810	2e-05
1822	2.2e-05
1834	3.6e-05
1846	4.2e-05
1858	3.6e-05
1870	2.6e-05
1882	2.8e-05
1894	2.8e-05
1906	3.2e-05
1918	3e-05
1930	6e-05
1942	2.6e-05
1954	3.6e-05
1966	3.4e-05
1978	3.8e-05
1990	3.4e-05
2002	3e-05
2014	3.6e-05
2026	4e-05
2038	4e-05
2050	6.6e-05
2062	3.6e-05
2074	2.6e-05
2086	4.2e-05
2098	4.2e-05
2110	2.2e-05
2122	1.8e-05
2134	2.6e-05
2146	3.6e-05
2158	3.8e-05
2170	6.2e-05
2182	4e-05
2194	4.2e-05
2206	3.2e-05
2218	5.2e-05
2230	5e-05
2242	6.2e-05
2254	2.8e-05
2266	3.2e-05
2278	7.6e-05
2290	4.6e-05
2302	5.6e-05
2314	7.6e-05
2326	6.6e-05
2338	7e-05
2350	8e-05
2362	6e-05
2374	7.8e-05
2386	7.8e-05
2398	5e-05
2410	5.6e-05
2422	5.2e-05
2434	6.2e-05
2446	3e-05
2458	2.6e-05
2470	1e-05
2482	3.6e-05
2494	4.2e-05
2506	6.4e-05
2518	6.2e-05
2530	2.2e-05
2542	6.2e-05
2554	5.8e-05
2566	9e-05
2578	8e-05
2590	8.6e-05
2602	0.000108
2614	6.2e-05
2626	0.000128
2638	9.4e-05
2650	0.00011
2662	0.00013
2674	0.000168
2686	0.0002
2698	0.000188
2710	0.000234
2722	0.00026
2734	0.000324
2746	0.0004
2758	0.00037
2770	0.000348
2782	0.000424
2794	0.000526
2806	0.000668
2818	0.00084
2830	0.001364
2842	0.00224
2854	0.002628
2866	0.003744
2878	0.007196
2890	0.008436
2902	0.006838
2914	0.006318
2926	0.008036
2938	0.011566
2950	0.013202
2962	0.017204
2974	0.018442
2986	0.00726
2998	0.002748
3010	0.001738
3022	0.001298
3034	0.001058
3046	0.000872
3058	0.000684
3070	0.000554
3082	0.000472
3094	0.000384
3106	0.000366
3118	0.000334
3130	0.000312
3142	0.000304
3154	0.00028
3166	0.000254
3178	0.000224
3190	0.000284
3202	0.000212
3214	0.000134
3226	0.000118
3238	0.000102
3250	5.2e-05
3262	0.000124
3274	7e-05
3286	7.6e-05
3298	7.2e-05
3310	9.6e-05
3322	6.2e-05
3334	0.000122
3346	8e-05
3358	8.6e-05
3370	0.000102
3382	6.2e-05
3394	0.000142
3406	0.000104
3418	9.4e-05
3430	6.4e-05
3442	6.4e-05
3454	5.4e-05
3466	8.8e-05
3478	0.000128
3490	2.6e-05
3502	6.2e-05
3514	0.000152
3526	0.0001
3538	0.000144
3550	8e-06
3562	0.0001
3574	8.6e-05
3586	6.8e-05
3598	7e-05
3610	6.2e-05
3622	6e-05
3634	0.00011
3646	8.4e-05
3658	0.000142
3670	9e-05
3682	9.2e-05
3694	0.000124
3706	8.6e-05
3718	9.2e-05
3730	8.8e-05
3742	7e-05
3754	0.000104
3766	0.000146
3778	0.000122
3790	0.000138
3802	0.000126
3814	0.00013
3826	9e-05
3838	0.000108
