Infrared Spectrum: Tri-N-propylsilane
Formula: C 9 H 22 Si
CAS: 998-29-8
State: gas
Origin: EPA-IR VAPOR PHASE LIBRARY
1/CM	ABSORBANCE
549.9	0.00157
559.547	0.00182
569.193	0.00225
578.84	0.0032647
588.486	0.00462
598.133	0.0063
607.779	0.00838
617.426	0.01039
627.072	0.01117
636.719	0.01173
646.365	0.01281
656.012	0.01402
665.658	0.0158
675.305	0.01858
684.951	0.02239
694.598	0.02754
704.245	0.03455
713.891	0.04168
723.538	0.04583
733.184	0.04467
742.831	0.03814
752.477	0.03375
762.124	0.03765
771.77	0.04283
781.417	0.04369
791.063	0.04417
800.71	0.04603
810.356	0.05064
820.003	0.0637
829.649	0.09361
839.296	0.13779
848.943	0.17317
858.589	0.14239
868.236	0.0815
877.882	0.0562
887.529	0.04794
897.175	0.0326
906.822	0.01624
916.468	0.00985
926.115	0.00736
935.761	0.0064
945.408	0.00618
955.054	0.00635
964.701	0.00699
974.347	0.00858
983.994	0.01264
993.64	0.02189
1003.29	0.03989
1012.93	0.04845
1022.58	0.03773
1032.23	0.03075
1041.87	0.03201
1051.52	0.04589
1061.17	0.06409
1070.81	0.0564
1080.46	0.02894
1090.11	0.01283
1099.75	0.00729
1109.4	0.00492
1119.05	0.003573
1128.69	0.0028777
1138.34	0.002507
1147.99	0.002282
1157.63	0.0028327
1167.28	0.003732
1176.92	0.00585
1186.57	0.01224
1196.22	0.02676
1205.86	0.0363
1215.51	0.03048
1225.16	0.01816
1234.8	0.00899
1244.45	0.00597
1254.1	0.00481
1263.74	0.00429
1273.39	0.00396
1283.04	0.00402
1292.68	0.00458
1302.33	0.00569
1311.98	0.00807
1321.62	0.01579
1331.27	0.02915
1340.92	0.02476
1350.56	0.01063
1360.21	0.00794
1369.86	0.01052
1379.5	0.0165
1389.15	0.01635
1398.79	0.01634
1408.44	0.02212
1418.09	0.02168
1427.73	0.01546
1437.38	0.01378
1447.03	0.01713
1456.67	0.02394
1466.32	0.02622
1475.97	0.01841
1485.61	0.01046
1495.26	0.00719
1504.91	0.00581
1514.55	0.00491
1524.2	0.00421
1533.85	0.0036055
1543.49	0.00296948
1553.14	0.002618
1562.79	0.002457
1572.43	0.002282
1582.08	0.002202
1591.73	0.002116
1601.37	0.002163
1611.02	0.002064
1620.67	0.002062
1630.31	0.00207
1639.96	0.002072
1649.6	0.002046
1659.25	0.002093
1668.9	0.002037
1678.54	0.002106
1688.19	0.002118
1697.84	0.002028
1707.48	0.001997
1717.13	0.00188
1726.78	0.00171
1736.42	0.00164
1746.07	0.00154
1755.72	0.00151
1765.36	0.0015
1775.01	0.00151
1784.66	0.00155
1794.3	0.0015
1803.95	0.00159
1813.6	0.00158
1823.24	0.00167
1832.89	0.00167
1842.54	0.00173
1852.18	0.00174
1861.83	0.00187
1871.47	0.00183
1881.12	0.00183
1890.77	0.00183
1900.41	0.00189
1910.06	0.001934
1919.71	0.001925
1929.35	0.001969
1939	0.002028
1948.65	0.001923
1958.29	0.00186
1967.94	0.00187
1977.59	0.001921
1987.23	0.002076
1996.88	0.002232
2006.53	0.002527
2016.17	0.00291844
2025.82	0.0037007
2035.47	0.00467
2045.11	0.00488
2054.76	0.00523
2064.41	0.00635
2074.05	0.00911
2083.7	0.01953
2093.35	0.07487
2102.99	0.1915
2112.64	0.1619
2122.28	0.05115
2131.93	0.01207
2141.58	0.00564
2151.22	0.00392
2160.87	0.0030487
2170.52	0.002552
2180.16	0.002214
2189.81	0.002034
2199.46	0.001968
2209.1	0.00184
2218.75	0.00185
2228.4	0.00187
2238.04	0.00187
2247.69	0.001904
2257.34	0.001913
2266.98	0.00189
2276.63	0.00169
2286.28	0.00152
2295.92	0.00154
2305.57	0.00142
2315.22	0.00132
2324.86	0.0013
2334.51	0.00134
2344.16	0.00142
2353.8	0.00139
2363.45	0.00129
2373.09	0.0014
2382.74	0.00152
2392.39	0.0016
2402.03	0.00175
2411.68	0.00162
2421.33	0.00143
2430.97	0.00152
2440.62	0.00149
2450.27	0.00157
2459.91	0.00148
2469.56	0.00155
2479.21	0.00153
2488.85	0.00157
2498.5	0.00167
2508.15	0.00171
2517.79	0.00174
2527.44	0.00173
2537.09	0.00161
2546.73	0.00156
2556.38	0.00152
2566.03	0.00163
2575.67	0.00173
2585.32	0.001998
2594.96	0.002318
2604.61	0.00291536
2614.26	0.0034046
2623.9	0.0033942
2633.55	0.0030834
2643.2	0.0031663
2652.84	0.0034898
2662.49	0.0036228
2672.14	0.0032177
2681.78	0.0028494
2691.43	0.0028375
2701.08	0.0028012
2710.72	0.0031859
2720.37	0.0038344
2730.02	0.00532
2739.66	0.00636
2749.31	0.00613
2758.96	0.00632
2768.6	0.00737
2778.25	0.00939
2787.9	0.01255
2797.54	0.01595
2807.19	0.01758
2816.84	0.01749
2826.48	0.01858
2836.13	0.02233
2845.77	0.0306
2855.42	0.04778
2865.07	0.08859
2874.71	0.15144
2884.36	0.17099
2894.01	0.15247
2903.65	0.15491
2913.3	0.168
2922.95	0.17618
2932.59	0.1864
2942.24	0.1729
2951.89	0.17132
2961.53	0.26067
2971.18	0.22772
2980.83	0.10186
2990.47	0.05236
3000.12	0.03545
3009.77	0.02672
3019.41	0.02098
3029.06	0.01591
3038.71	0.01157
3048.35	0.00914
3058	0.00738
3067.64	0.00655
3077.29	0.00594
3086.94	0.00543
3096.58	0.00512
3106.23	0.00458
3115.88	0.00419
3125.52	0.00396
3135.17	0.0036906
3144.82	0.0034035
3154.46	0.0032544
3164.11	0.0030022
3173.76	0.0028226
3183.4	0.002593
3193.05	0.002628
3202.7	0.002285
3212.34	0.00185
3221.99	0.00153
3231.64	0.00112
3241.28	0.00099
3250.93	0.0009
3260.58	0.00064
3270.22	0.00051
3279.87	0.00078
3289.52	0.00056
3299.16	0.00065
3308.81	0.00069
3318.45	0.00082
3328.1	0.00048
3337.75	0.00041
3347.39	0.0003
3357.04	9e-05
3366.69	0.00011
3376.33	0.00017
3385.98	3e-05
3395.63	0.00029
3405.27	0.00032
3414.92	8e-05
3424.57	0
3434.21	0.00014
3443.86	0.00026
3453.51	0.00015
3463.15	0.00015
3472.8	0.00031
3482.45	0.0004
3492.09	0.0004
3501.74	0.00071
3511.39	0.00046
3521.03	0.00065
3530.68	0.00055
3540.33	0.00066
3549.97	0.00074
3559.62	0.00069
3569.26	0.00069
3578.91	0.00067
3588.56	0.00053
3598.2	0.00065
3607.85	0.00089
3617.5	0.00083
3627.14	0.0008
3636.79	0.00076
3646.44	0.0008
3656.08	0.00096
3665.73	0.00089
3675.38	0.00104
3685.02	0.00096
3694.67	0.00119
3704.32	0.00113
3713.96	0.00128
3723.61	0.00126
3733.26	0.00126
3742.9	0.00118
3752.55	0.00116
3762.2	0.0013
3771.84	0.00129
3781.49	0.00115
3791.13	0.00118
3800.78	0.00099
3810.43	0.00115
3820.07	0.00104
3829.72	0.00104
3839.37	0.00104
3849.01	0.00094
3858.66	0.00111
3868.31	0.00119
3877.95	0.00138
3887.6	0.00158
3897.25	0.00169
3906.89	0.00175
3916.54	0.00163
3926.19	0.00153
3935.83	0.00149
3945.48	0.00157
3955.13	0.00152
3964.77	0.00149
3974.42	0.0013
3984.07	0.00126
3993.71	0.0013
