Infrared Spectrum: 2(P-BROMOPHENOXY)ETHYL Alpha,Alpha-DICHLOROPROPIONATE
Formula: C11 H11 Br Cl2 O3
CAS: 99852-98-9
State: SOLUTION (10% CCl4 FOR 5000-1330, 10% CS2 FOR 1330-625 CM^-^1)
Class: COBLENTZ
Instrument: Not specified, most likely a prism, grating, or hybrid spectrometer.
Sampling: TRANSMISSION
Path length: 0.0130 CM, 0.0112 CM
Resolution: 4
Origin: DOW CHEMICAL COMPANY
MICROMETERS	TRANSMITTANCE
2.027	0.898
2.06818	0.895
2.10936	0.895
2.15054	0.898
2.19172	0.893
2.2329	0.888
2.27408	0.89
2.31525	0.89
2.35643	0.892
2.39761	0.888
2.43879	0.893
2.47997	0.897
2.52115	0.898
2.56233	0.9
2.60351	0.902
2.64469	0.895
2.68587	0.898
2.72705	0.873
2.76823	0.869
2.8094	0.861
2.85058	0.857
2.89176	0.863
2.93294	0.859
2.97412	0.859
3.0153	0.861
3.05648	0.859
3.09766	0.861
3.13884	0.861
3.18002	0.852
3.2212	0.832
3.26238	0.833
3.30356	0.799
3.34473	0.72
3.38591	0.724
3.42709	0.758
3.46827	0.832
3.50945	0.864
3.55063	0.869
3.59181	0.873
3.63299	0.876
3.67417	0.88
3.71535	0.883
3.75653	0.886
3.79771	0.886
3.83888	0.881
3.88006	0.875
3.92124	0.866
3.96242	0.873
4.0036	0.869
4.04478	0.881
4.08596	0.878
4.12714	0.871
4.16832	0.866
4.2095	0.875
4.25068	0.875
4.29186	0.868
4.33304	0.863
4.37421	0.876
4.41539	0.881
4.45657	0.888
4.49775	0.885
4.53893	0.89
4.58011	0.883
4.62129	0.88
4.66247	0.878
4.70365	0.88
4.74483	0.876
4.78601	0.871
4.82719	0.873
4.86836	0.876
4.90954	0.868
4.95072	0.869
4.9919	0.868
5.03308	0.875
5.07426	0.876
5.11544	0.876
5.15662	0.878
5.1978	0.878
5.23898	0.866
5.28016	0.861
5.32134	0.83
5.36252	0.859
5.40369	0.857
5.44487	0.854
5.48605	0.837
5.52723	0.806
5.56841	0.72
5.60959	0.462
5.65077	0.196
5.69195	0.101
5.73313	0.45
5.77431	0.746
5.81549	0.789
5.85667	0.827
5.89784	0.852
5.93902	0.859
5.9802	0.857
6.02138	0.849
6.06256	0.833
6.10374	0.816
6.14492	0.787
6.1861	0.722
6.22728	0.544
6.26846	0.397
6.30964	0.405
6.35082	0.505
6.39199	0.46
6.43317	0.424
6.47435	0.479
6.51553	0.551
6.55671	0.57
6.59789	0.592
6.63907	0.52
6.68025	0.239
6.72143	0.186
6.76261	0.599
6.80379	0.506
6.84497	0.436
6.88615	0.496
6.92732	0.601
6.9685	0.72
7.00968	0.741
7.05086	0.7
7.09204	0.684
7.13322	0.724
7.1744	0.71
7.21558	0.57
7.25676	0.679
7.29794	0.748
7.33912	0.784
7.3803	0.775
7.42147	0.736
7.46265	0.746
7.50383	0.741
7.54501	0.703
7.58619	0.647
7.62737	0.525
7.66855	0.417
7.70973	0.335
7.75091	0.239
7.79209	0.214
7.83327	0.195
7.87445	0.157
7.91563	0.172
7.9568	0.164
7.99798	0.085
8.03916	0.034
8.08034	0.041
8.12152	0.094
8.1627	0.217
8.20388	0.422
8.24506	0.57
8.28624	0.664
8.32742	0.71
8.3686	0.732
8.40978	0.727
8.45095	0.657
8.49213	0.503
8.53331	0.464
8.57449	0.623
8.61567	0.657
8.65685	0.659
8.69803	0.628
8.73921	0.558
8.78039	0.412
8.82157	0.255
8.86275	0.21
8.90393	0.227
8.94511	0.258
8.98628	0.255
9.02746	0.308
9.06864	0.375
9.10982	0.395
9.151	0.361
9.19218	0.297
9.23336	0.299
9.27454	0.272
9.31572	0.207
9.3569	0.167
9.39808	0.303
9.43926	0.505
9.48043	0.549
9.52161	0.556
9.56279	0.554
9.60397	0.549
9.64515	0.58
9.68633	0.623
9.72751	0.66
9.76869	0.693
9.80987	0.708
9.85105	0.708
9.89223	0.635
9.93341	0.522
9.97459	0.563
10.0158	0.714
10.0569	0.729
10.0981	0.734
10.1393	0.746
10.1805	0.758
10.2217	0.775
10.2628	0.78
10.304	0.785
10.3452	0.787
10.3864	0.78
10.4276	0.765
10.4687	0.741
10.5099	0.702
10.5511	0.666
10.5923	0.638
10.6335	0.631
10.6746	0.636
10.7158	0.655
10.757	0.66
10.7982	0.676
10.8393	0.695
10.8805	0.717
10.9217	0.726
10.9629	0.726
11.0041	0.72
11.0452	0.726
11.0864	0.731
11.1276	0.732
11.1688	0.727
11.21	0.726
11.2511	0.724
11.2923	0.722
11.3335	0.71
11.3747	0.695
11.4159	0.672
11.457	0.652
11.4982	0.628
11.5394	0.606
11.5806	0.592
11.6218	0.58
11.6629	0.578
11.7041	0.575
11.7453	0.599
11.7865	0.631
11.8276	0.66
11.8688	0.681
11.91	0.686
11.9512	0.678
11.9924	0.648
12.0335	0.592
12.0747	0.52
12.1159	0.404
12.1571	0.226
12.1983	0.116
12.2394	0.214
12.2806	0.469
12.3218	0.601
12.363	0.647
12.4042	0.662
12.4453	0.633
12.4865	0.566
12.5277	0.515
12.5689	0.503
12.6101	0.537
12.6512	0.582
12.6924	0.607
12.7336	0.636
12.7748	0.65
12.8159	0.671
12.8571	0.688
12.8983	0.705
12.9395	0.719
12.9807	0.727
13.0218	0.734
13.063	0.738
13.1042	0.738
13.1454	0.736
13.1866	0.738
13.2277	0.729
13.2689	0.724
13.3101	0.722
13.3513	0.714
13.3925	0.702
13.4336	0.681
13.4748	0.659
13.516	0.633
13.5572	0.602
13.5984	0.573
13.6395	0.549
13.6807	0.537
13.7219	0.534
13.7631	0.549
13.8043	0.57
13.8454	0.585
13.8866	0.599
13.9278	0.614
13.969	0.616
14.0101	0.616
14.0513	0.609
14.0925	0.602
14.1337	0.599
14.1749	0.59
14.216	0.575
14.2572	0.566
14.2984	0.559
14.3396	0.546
14.3808	0.537
14.4219	0.529
14.4631	0.523
14.5043	0.515
14.5455	0.506
14.5867	0.489
14.6278	0.479
14.669	0.46
14.7102	0.445
14.7514	0.431
14.7926	0.412
14.8337	0.395
14.8749	0.371
14.9161	0.349
14.9573	0.313
14.9984	0.267
15.0396	0.232
15.0808	0.22
15.122	0.2
15.1632	0.198
15.2043	0.205
15.2455	0.215
15.2867	0.232
15.3279	0.244
15.3691	0.255
15.4102	0.265
15.4514	0.263
15.4926	0.25
15.5338	0.234
15.575	0.226
15.6161	0.231
15.6573	0.244
15.6985	0.25
15.7397	0.258
15.7809	0.261
15.822	0.272
15.8632	0.27
