Infrared Spectrum: Ammonium chloride, 2-chloroethyltrimethyl-
Formula: C5 H13 Cl2 N
CAS: 999-81-5
State: SOLID (SPLIT MULL), FLUOROLUBE FOR 3800-1330 CM^-^1, NUJOL FOR 1330-460 CM^-^1
Class: COBLENTZ III
Instrument: DOW KBr FOREPRISM-GRATING
Instrument parameters: BLAZED AT 3.5, 12.0, 20.0 MICRON AND CHANGED AT 5.0, 7.5, 14.9 MICRON
Sampling: TRANSMISSION
Resolution: 2
Origin: DOW CHEMICAL COMPANY
1/CM	TRANSMITTANCE
459	0.8432
468	0.8578
477	0.8688
486	0.8736
495	0.8702
504	0.8703
513	0.8885
522	0.901
531	0.9012
540	0.8977
549	0.89
558	0.881
567	0.8713
576	0.862
585	0.853
594	0.8441
603	0.8354
612	0.8268
621	0.8178
630	0.8087
639	0.7983
648	0.791
657	0.7871
666	0.7458
675	0.7747
684	0.743
693	0.6971
702	0.5852
711	0.5621
720	0.4174
729	0.1322
738	0.295
747	0.5469
756	0.533
765	0.2803
774	0.4451
783	0.6245
792	0.5826
801	0.4355
810	0.4235
819	0.5642
828	0.6772
837	0.7051
846	0.7156
855	0.7158
864	0.7089
873	0.6998
882	0.6839
891	0.6385
900	0.5565
909	0.2303
918	0.0742
927	0.2704
936	0.4158
945	0.2013
954	0.2611
963	0.3934
972	0.2171
981	0.2724
990	0.6253
999	0.6825
1008	0.6855
1017	0.6964
1026	0.6915
1035	0.673
1044	0.593
1053	0.6651
1062	0.5128
1071	0.6292
1080	0.6587
1089	0.6725
1098	0.6718
1107	0.6703
1116	0.6643
1125	0.6309
1134	0.6356
1143	0.6018
1152	0.6149
1161	0.6411
1170	0.6438
1179	0.6461
1188	0.6522
1197	0.6398
1206	0.6471
1215	0.6498
1224	0.6444
1233	0.6225
1242	0.5614
1251	0.5428
1260	0.5824
1269	0.5383
1278	0.5387
1287	0.519
1296	0.4493
1305	0.2682
1314	0.5357
1323	0.563
1332	0.6112
1341	0.6228
1350	0.6464
1359	0.681
1368	0.7071
1377	0.7221
1386	0.7158
1395	0.6968
1404	0.6465
1413	0.6743
1422	0.5931
1431	0.6476
1440	0.5671
1449	0.5436
1458	0.5438
1467	0.4956
1476	0.3795
1485	0.2484
1494	0.4701
1503	0.6556
1512	0.7205
1521	0.7451
1530	0.7548
1539	0.7614
1548	0.7636
1557	0.7642
1566	0.7636
1575	0.7644
1584	0.7662
1593	0.7682
1602	0.7689
1611	0.7688
1620	0.7691
1629	0.7691
1638	0.769
1647	0.7678
1656	0.7674
1665	0.7682
1674	0.7654
1683	0.7612
1692	0.7584
1701	0.7515
1710	0.7476
1719	0.7436
1728	0.7487
1737	0.7471
1746	0.7434
1755	0.7411
1764	0.738
1773	0.7336
1782	0.7311
1791	0.7271
1800	0.7256
1809	0.7246
1818	0.7251
1827	0.7281
1836	0.7307
1845	0.7317
1854	0.7317
1863	0.7315
1872	0.735
1881	0.7408
1890	0.7428
1899	0.7407
1908	0.7364
1917	0.7339
1926	0.7321
1935	0.7321
1944	0.7295
1953	0.7272
1962	0.7232
1971	0.7189
1980	0.7111
1989	0.71
1998	0.7253
2007	0.7399
2016	0.7401
2025	0.7414
2034	0.7418
2043	0.7391
2052	0.7356
2061	0.7328
2070	0.7311
2079	0.7296
2088	0.7278
2097	0.7261
2106	0.7241
2115	0.7219
2124	0.72
2133	0.7171
2142	0.7142
2151	0.7111
2160	0.7075
2169	0.704
2178	0.7003
2187	0.6965
2196	0.6926
2205	0.6891
2214	0.6855
2223	0.6818
2232	0.6778
2241	0.6736
2250	0.6694
2259	0.6662
2268	0.6644
2277	0.6614
2286	0.6594
2295	0.6569
2304	0.6541
2313	0.6482
2322	0.6396
2331	0.6369
2340	0.637
2349	0.6374
2358	0.6382
2367	0.6401
2376	0.6437
2385	0.6438
2394	0.6436
2403	0.6431
2412	0.6421
2421	0.6408
2430	0.6396
2439	0.6378
2448	0.636
2457	0.6334
2466	0.6298
2475	0.6249
2484	0.6194
2493	0.6141
2502	0.623
2511	0.6253
2520	0.6196
2529	0.6145
2538	0.6124
2547	0.6109
2556	0.6093
2565	0.6092
2574	0.6089
2583	0.6076
2592	0.6052
2601	0.6049
2610	0.6066
2619	0.6101
2628	0.6097
2637	0.6067
2646	0.6033
2655	0.5997
2664	0.5969
2673	0.5941
2682	0.5912
2691	0.5898
2700	0.5885
2709	0.5798
2718	0.5724
2727	0.5689
2736	0.568
2745	0.566
2754	0.5589
2763	0.5571
2772	0.557
2781	0.556
2790	0.5555
2799	0.5518
2808	0.5436
2817	0.536
2826	0.5355
2835	0.5329
2844	0.5258
2853	0.5134
2862	0.5015
2871	0.4897
2880	0.478
2889	0.4651
2898	0.4533
2907	0.4441
2916	0.4362
2925	0.425
2934	0.4122
2943	0.396
2952	0.368
2961	0.3348
2970	0.2667
2979	0.2859
2988	0.3856
2997	0.3409
3006	0.1953
3015	0.1231
3024	0.3582
3033	0.557
3042	0.5712
3051	0.5712
3060	0.5685
3069	0.5639
3078	0.5619
3087	0.5605
3096	0.5591
3105	0.558
3114	0.5572
3123	0.5574
3132	0.5612
3141	0.5653
3150	0.5659
3159	0.5634
3168	0.562
3177	0.5627
3186	0.5629
3195	0.5624
3204	0.5615
3213	0.5604
3222	0.5592
3231	0.5579
3240	0.5564
3249	0.5548
3258	0.5531
3267	0.5514
3276	0.5494
3285	0.5473
3294	0.547
3303	0.5464
3312	0.5445
3321	0.5408
3330	0.5357
3339	0.5334
3348	0.5328
3357	0.5324
3366	0.532
3375	0.5315
3384	0.5312
3393	0.5312
3402	0.531
3411	0.5299
3420	0.5273
3429	0.5268
3438	0.5276
3447	0.5253
3456	0.5226
3465	0.5192
3474	0.5154
3483	0.5127
3492	0.5104
3501	0.5084
3510	0.5064
3519	0.5062
3528	0.5062
3537	0.5064
3546	0.5066
3555	0.5073
3564	0.5086
3573	0.5105
3582	0.5118
3591	0.5114
3600	0.5101
3609	0.5077
3618	0.5051
3627	0.5022
3636	0.4996
3645	0.4973
3654	0.495
3663	0.4927
3672	0.4904
3681	0.488
3690	0.4857
3699	0.4833
3708	0.4804
3717	0.4774
3726	0.4744
3735	0.4712
3744	0.4694
3753	0.468
3762	0.4668
3771	0.4656
3780	0.4629
3789	0.4591
