Infrared Spectrum: DISILAZANE, 1,1,1,3,3,3-HEXAMETHYL-
Formula: C6 H19 N Si2
CAS: 999-97-3
State: SOLUTION (10% IN CCl4 FOR 3800-1300, 10% IN CS2 FOR 1300-650, 10% IN CCl4 FOR 650-250 CM^-^1) VERSUS SOLVENT
Class: COBLENTZ III
Instrument: PERKIN-ELMER 521 (GRATING)
Instrument parameters: FILTERS AT 3150, 2500, 2000, 1150, 700, 410; GRATING CHANGES AT 2000, 630 CM^-^1
Sampling: TRANSMISSION
Path length: 0.011, 0.011, AND 0.011 CM (CsBr CELL)
Resolution: 4
Origin: DOW CORNING CORP.
1/CM	TRANSMITTANCE
247.213	0.613
257.049	0.61
266.885	0.652
276.721	0.653
286.557	0.655
296.393	0.704
306.229	0.755
316.066	0.761
325.902	0.73
335.738	0.624
345.574	0.463
355.41	0.416
365.246	0.467
375.082	0.569
384.918	0.657
394.754	0.72
404.59	0.765
414.426	0.798
424.262	0.825
434.098	0.841
443.934	0.849
453.771	0.853
463.607	0.855
473.443	0.852
483.279	0.855
493.115	0.859
502.951	0.86
512.787	0.857
522.623	0.86
532.459	0.859
542.295	0.851
552.131	0.818
561.967	0.738
571.803	0.801
581.64	0.861
591.476	0.867
601.312	0.851
611.148	0.566
620.984	0.723
630.82	0.865
640.656	0.889
650.492	0.895
660.328	0.892
670.164	0.879
680	0.812
689.836	0.722
699.672	0.824
709.509	0.895
719.345	0.895
729.181	0.877
739.017	0.857
748.853	0.775
758.689	0.703
768.525	0.759
778.361	0.766
788.197	0.857
798.033	0.84
807.869	0.731
817.705	0.455
827.541	0.315
837.377	0.17
847.214	0.142
857.05	0.41
866.886	0.61
876.722	0.579
886.558	0.475
896.394	0.722
906.23	0.751
916.066	0.621
925.902	0.204
935.738	0.151
945.574	0.585
955.41	0.806
965.246	0.891
975.083	0.927
984.919	0.944
994.755	0.951
1004.59	0.962
1014.43	0.959
1024.26	0.963
1034.1	0.957
1043.94	0.94
1053.77	0.943
1063.61	0.958
1073.44	0.973
1083.28	0.981
1093.12	0.985
1102.95	0.985
1112.79	0.979
1122.62	0.971
1132.46	0.966
1142.3	0.957
1152.13	0.923
1161.97	0.814
1171.8	0.524
1181.64	0.379
1191.48	0.702
1201.31	0.885
1211.15	0.916
1220.98	0.903
1230.82	0.842
1240.66	0.578
1250.49	0.234
1260.33	0.562
1270.16	0.856
1280	0.895
1289.84	0.902
1299.67	0.896
1309.51	0.881
1319.35	0.864
1329.18	0.836
1339.02	0.809
1348.85	0.787
1358.69	0.777
1368.53	0.787
1378.36	0.781
1388.2	0.727
1398.03	0.557
1407.87	0.555
1417.71	0.589
1427.54	0.609
1437.38	0.604
1447.21	0.656
1457.05	0.743
1466.89	0.8
1476.72	0.821
1486.56	0.806
1496.39	0.786
1506.23	0.845
1516.07	0.881
1525.9	0.904
1535.74	0.915
1545.57	0.918
1555.41	0.914
1565.25	0.907
1575.08	0.893
1584.92	0.889
1594.76	0.883
1604.59	0.88
1614.43	0.888
1624.26	0.897
1634.1	0.907
1643.94	0.912
1653.77	0.915
1663.61	0.915
1673.44	0.914
1683.28	0.916
1693.12	0.914
1702.95	0.912
1712.79	0.911
1722.62	0.911
1732.46	0.91
1742.3	0.9
1752.13	0.911
1761.97	0.919
1771.8	0.922
1781.64	0.923
1791.48	0.924
1801.31	0.915
1811.15	0.91
1820.98	0.91
1830.82	0.912
1840.66	0.915
1850.49	0.906
1860.33	0.891
1870.17	0.889
1880	0.916
1889.84	0.918
1899.67	0.916
1909.51	0.906
1919.35	0.883
1929.18	0.871
1939.02	0.873
1948.85	0.902
1958.69	0.912
1968.53	0.919
1978.36	0.918
1988.2	0.916
1998.03	0.918
2007.87	0.93
2017.71	0.927
2027.54	0.931
2037.38	0.932
2047.21	0.931
2057.05	0.926
2066.89	0.92
2076.72	0.912
2086.56	0.907
2096.4	0.906
2106.23	0.907
2116.07	0.912
2125.9	0.92
2135.74	0.924
2145.58	0.922
2155.41	0.926
2165.25	0.931
2175.08	0.932
2184.92	0.935
2194.76	0.938
2204.59	0.935
2214.43	0.934
2224.26	0.932
2234.1	0.932
2243.94	0.934
2253.77	0.936
2263.61	0.936
2273.44	0.934
2283.28	0.935
2293.12	0.936
2302.95	0.94
2312.79	0.939
2322.62	0.943
2332.46	0.944
2342.3	0.944
2352.13	0.94
2361.97	0.942
2371.81	0.939
2381.64	0.934
2391.48	0.932
2401.31	0.93
2411.15	0.931
2420.99	0.931
2430.82	0.931
2440.66	0.93
2450.49	0.93
2460.33	0.927
2470.17	0.923
2480	0.915
2489.84	0.912
2499.67	0.919
2509.51	0.926
2519.35	0.927
2529.18	0.927
2539.02	0.926
2548.85	0.927
2558.69	0.926
2568.53	0.924
2578.36	0.924
2588.2	0.924
2598.03	0.926
2607.87	0.922
2617.71	0.92
2627.54	0.916
2637.38	0.914
2647.22	0.906
2657.05	0.904
2666.89	0.906
2676.72	0.91
2686.56	0.908
2696.4	0.907
2706.23	0.906
2716.07	0.906
2725.9	0.904
2735.74	0.904
2745.58	0.895
2755.41	0.891
2765.25	0.883
2775.08	0.873
2784.92	0.8451
2794.76	0.804
2804.59	0.786
2814.43	0.783
2824.26	0.775
2834.1	0.765
2843.94	0.761
2853.77	0.758
2863.61	0.748
2873.45	0.722
2883.28	0.6242
2893.12	0.4811
2902.95	0.358
2912.79	0.4769
2922.63	0.558
2932.46	0.516
2942.3	0.3443
2952.13	0.0603
2961.97	0.012
2971.81	0.061
2981.64	0.3544
2991.48	0.5788
3001.31	0.7119
3011.15	0.751
3020.99	0.778
3030.82	0.794
3040.66	0.798
3050.49	0.802
3060.33	0.809
3070.17	0.814
3080	0.82
3089.84	0.828
3099.67	0.832
3109.51	0.836
3119.35	0.84
3129.18	0.842
3139.02	0.848
3148.86	0.857
3158.69	0.864
3168.53	0.868
3178.36	0.873
3188.2	0.875
3198.04	0.879
3207.87	0.879
3217.71	0.884
3227.54	0.897
3237.38	0.904
3247.22	0.908
3257.05	0.912
3266.89	0.914
3276.72	0.915
3286.56	0.914
3296.4	0.911
3306.23	0.91
3316.07	0.907
3325.9	0.906
3335.74	0.903
3345.58	0.892
3355.41	0.872
3365.25	0.8131
3375.08	0.6613
3384.92	0.503
3394.76	0.7028
3404.59	0.8479
3414.43	0.881
3424.27	0.9
3434.1	0.906
3443.94	0.908
3453.77	0.914
3463.61	0.915
3473.45	0.916
3483.28	0.916
3493.12	0.916
3502.95	0.918
3512.79	0.918
3522.63	0.918
3532.46	0.916
3542.3	0.915
3552.13	0.914
3561.97	0.907
3571.81	0.904
3581.64	0.902
3591.48	0.907
3601.31	0.908
3611.15	0.907
3620.99	0.897
3630.82	0.888
3640.66	0.884
3650.49	0.892
3660.33	0.895
3670.17	0.897
3680	0.893
3689.84	0.884
3699.68	0.879
3709.51	0.873
3719.35	0.869
3729.18	0.871
3739.02	0.881
3748.86	0.895
3758.69	0.9
3768.53	0.9
3778.36	0.895
3788.2	0.893
