Infrared Spectrum: 3-Bromooctane
Formula: C 8 H 17 Br
CAS: 999-64-4
State: gas
Instrument: HP-GC/MS/IRD
Origin: NIST Mass Spectrometry Data Center
1/CM	ABSORBANCE
550	0.0009
562	0.0003375
574	0.000285
586	0.0004725
598	0.0013575
610	0.00252
622	0.0023775
634	0.001125
646	0.00024
658	0.000105
670	3.75e-05
682	7.5e-05
694	9e-05
706	0.0002775
718	0.0009375
730	0.001755
742	0.001335
754	0.0009075
766	0.0012
778	0.001815
790	0.00318
802	0.0038475
814	0.0023775
826	0.0016125
838	0.0018375
850	0.0023925
862	0.0028875
874	0.0028275
886	0.0025575
898	0.00201
910	0.00123
922	0.0007875
934	0.0004875
946	0.0006825
958	0.001095
970	0.0010575
982	0.0007725
994	0.00045
1006	0.00042
1018	0.00045
1030	0.0005325
1042	0.0006375
1054	0.00084
1066	0.00099
1078	0.0010275
1090	0.001125
1102	0.001155
1114	0.0017325
1126	0.002715
1138	0.003525
1150	0.0026175
1162	0.00285
1174	0.005205
1186	0.0062175
1198	0.00552
1210	0.0062475
1222	0.005625
1234	0.00381
1246	0.0027075
1258	0.002625
1270	0.0039075
1282	0.00594
1294	0.00663
1306	0.0054975
1318	0.00414
1330	0.00327
1342	0.0032925
1354	0.0030675
1366	0.0032775
1378	0.0050475
1390	0.0058725
1402	0.002745
1414	0.00219
1426	0.003315
1438	0.0063
1450	0.0099225
1462	0.0129
1474	0.00897
1486	0.003675
1498	0.0017925
1510	0.0011775
1522	0.000825
1534	0.00063
1546	0.000555
1558	0.0005025
1570	0.000405
1582	0.000315
1594	0.000255
1606	0.0002175
1618	0.0002175
1630	0.0002625
1642	0.00021
1654	0.000195
1666	0.0001425
1678	0.0001125
1690	7.5e-05
1702	3.75e-05
1714	1.5e-05
1726	2.25e-05
1738	2.25e-05
1750	3e-05
1762	1.5e-05
1774	0
1786	0
1798	0
1810	1.5e-05
1822	1.5e-05
1834	3.75e-05
1846	3.75e-05
1858	0
1870	3e-05
1882	3.75e-05
1894	3.75e-05
1906	6e-05
1918	4.5e-05
1930	3e-05
1942	7.5e-06
1954	3.75e-05
1966	3e-05
1978	5.25e-05
1990	2.25e-05
2002	3e-05
2014	2.25e-05
2026	6.75e-05
2038	8.25e-05
2050	8.25e-05
2062	4.5e-05
2074	3.75e-05
2086	5.25e-05
2098	3.75e-05
2110	2.25e-05
2122	4.5e-05
2134	0
2146	4.5e-05
2158	3.75e-05
2170	2.25e-05
2182	4.5e-05
2194	2.25e-05
2206	3.75e-05
2218	5.25e-05
2230	6.75e-05
2242	4.5e-05
2254	4.5e-05
2266	5.25e-05
2278	6e-05
2290	0.0001125
2302	0.0001125
2314	0.000135
2326	0.000135
2338	0.0001575
2350	0.0001425
2362	0.000135
2374	0.0001875
2386	0.0001725
2398	0.00018
2410	0.0002025
2422	0.000195
2434	0.00018
2446	0.000135
2458	0.0001125
2470	0.0001275
2482	0.000165
2494	0.0001575
2506	0.0001725
2518	0.0002025
2530	0.000285
2542	0.0003075
2554	0.000345
2566	0.0003675
2578	0.0003975
2590	0.000435
2602	0.0004725
2614	0.00045
2626	0.000465
2638	0.0005325
2650	0.000675
2662	0.0007575
2674	0.000825
2686	0.000885
2698	0.0009525
2710	0.000975
2722	0.0010725
2734	0.0013275
2746	0.0016275
2758	0.001605
2770	0.0016575
2782	0.0019875
2794	0.002595
2806	0.0032775
2818	0.00435
2830	0.0063975
2842	0.0109875
2854	0.0193125
2866	0.028365
2878	0.0326175
2890	0.0335175
2902	0.0331725
2914	0.04119
2926	0.0579225
2938	0.0734475
2950	0.070875
2962	0.06825
2974	0.068115
2986	0.0348375
2998	0.0144675
3010	0.007665
3022	0.0052725
3034	0.0039
3046	0.0030075
3058	0.0024675
3070	0.00231
3082	0.0020625
3094	0.0018
3106	0.001575
3118	0.001395
3130	0.0012825
3142	0.00114
3154	0.001125
3166	0.00096
3178	0.0008625
3190	0.00072
3202	0.0006225
3214	0.0005325
3226	0.000435
3238	0.000375
3250	0.0003525
3262	0.0002925
3274	0.00024
3286	0.0002325
3298	0.0001725
3310	0.00015
3322	0.000165
3334	9.75e-05
3346	0.0001725
3358	0.000165
3370	0.00018
3382	0.0001725
3394	0.0001425
3406	0.0001275
3418	0.0001425
3430	0.00012
3442	7.5e-05
3454	0.00012
3466	0.0001125
3478	9.75e-05
3490	0.000105
3502	6e-05
3514	0.000105
3526	0.000135
3538	0.0001425
3550	0.000105
3562	0.0001725
3574	9.75e-05
3586	4.5e-05
3598	0.0001125
3610	0.0001725
3622	0.0001575
3634	0.0001575
3646	0.000195
3658	0.00015
3670	0.0001425
3682	0.00018
3694	0.0001875
3706	0.0001725
3718	0.0001575
3730	0.00018
3742	0.00024
3754	0.0002025
3766	0.0001725
3778	0.0001725
3790	0.000135
3802	0.000225
3814	0.0001875
3826	0.000165
3838	0.00018
