Infrared Spectrum: 4-Chlorooctane
Formula: C 8 H 17 Cl
CAS: 999-07-5
State: gas
Instrument: HP-GC/MS/IRD
Origin: NIST Mass Spectrometry Data Center
1/CM	ABSORBANCE
550	0.0005542
562	8.16e-05
574	0.0001632
586	0.0002414
598	0.0004284
610	0.000782
622	0.001003
634	0.0007888
646	0.0008466
658	0.00136
670	0.0016286
682	0.0008908
694	0.0003876
706	0.0003672
718	0.0004216
730	0.0008602
742	0.0014586
754	0.0019958
766	0.0016694
778	0.0009996
790	0.0007752
802	0.0006596
814	0.0004964
826	0.0004488
838	0.0004046
850	0.0004624
862	0.0005066
874	0.0006426
886	0.0007106
898	0.0006256
910	0.0005168
922	0.0007174
934	0.0010132
946	0.0008976
958	0.0006052
970	0.0005372
982	0.0005202
994	0.0004148
1006	0.0002516
1018	0.0001462
1030	0.000136
1042	0.000255
1054	0.0003026
1066	0.0003672
1078	0.0003774
1090	0.0004488
1102	0.0005678
1114	0.000731
1126	0.0008534
1138	0.000714
1150	0.000493
1162	0.0002414
1174	0.0002584
1186	0.000442
1198	0.0008194
1210	0.001207
1222	0.0012648
1234	0.0012478
1246	0.001479
1258	0.0019516
1270	0.0021862
1282	0.0019074
1294	0.0018632
1306	0.0018598
1318	0.0016116
1330	0.0014008
1342	0.0014688
1354	0.001343
1366	0.0012512
1378	0.0017714
1390	0.001887
1402	0.0010982
1414	0.0009282
1426	0.0013498
1438	0.0023018
1450	0.0034476
1462	0.0046036
1474	0.0035462
1486	0.0015538
1498	0.0007718
1510	0.0005134
1522	0.0003876
1534	0.000323
1546	0.0002482
1558	0.0001768
1570	0.0001428
1582	0.000136
1594	0.0001122
1606	0.000136
1618	0.0001258
1630	0.0001326
1642	0.0001258
1654	8.5e-05
1666	0.000119
1678	0.000102
1690	0.0001156
1702	0.000102
1714	8.84e-05
1726	9.18e-05
1738	8.84e-05
1750	9.18e-05
1762	6.12e-05
1774	8.5e-05
1786	6.46e-05
1798	8.16e-05
1810	8.16e-05
1822	7.14e-05
1834	6.12e-05
1846	6.12e-05
1858	6.8e-05
1870	7.14e-05
1882	7.48e-05
1894	7.48e-05
1906	7.14e-05
1918	3.06e-05
1930	6.12e-05
1942	5.44e-05
1954	6.46e-05
1966	5.1e-05
1978	6.12e-05
1990	5.78e-05
2002	4.76e-05
2014	7.82e-05
2026	5.78e-05
2038	6.8e-05
2050	8.16e-05
2062	7.14e-05
2074	5.44e-05
2086	6.46e-05
2098	6.46e-05
2110	6.46e-05
2122	5.78e-05
2134	5.44e-05
2146	4.76e-05
2158	4.08e-05
2170	4.42e-05
2182	7.48e-05
2194	7.14e-05
2206	6.12e-05
2218	6.8e-05
2230	3.4e-05
2242	5.78e-05
2254	6.12e-05
2266	6.8e-05
2278	6.46e-05
2290	5.1e-05
2302	5.44e-05
2314	7.48e-05
2326	6.8e-05
2338	8.84e-05
2350	9.18e-05
2362	7.14e-05
2374	9.52e-05
2386	0.0001054
2398	0.0001054
2410	0.0001054
2422	0.0001054
2434	9.18e-05
2446	7.82e-05
2458	9.52e-05
2470	9.18e-05
2482	8.5e-05
2494	7.48e-05
2506	8.84e-05
2518	0.000102
2530	0.0001258
2542	0.0001462
2554	0.0001598
2566	0.000187
2578	0.0001972
2590	0.0001836
2602	0.000187
2614	0.0002108
2626	0.0001836
2638	0.0002618
2650	0.0002516
2662	0.000289
2674	0.0003366
2686	0.0003502
2698	0.0003808
2710	0.0003978
2722	0.0004556
2734	0.0005814
2746	0.000663
2758	0.0006562
2770	0.0006766
2782	0.000765
2794	0.0009656
2806	0.001241
2818	0.0016082
2830	0.002312
2842	0.0036652
2854	0.0056882
2866	0.00935
2878	0.0137122
2890	0.0134266
2902	0.0119442
2914	0.0143208
2926	0.0189958
2938	0.0270572
2950	0.030515
2962	0.0325686
2974	0.0294032
2986	0.0115702
2998	0.0050048
3010	0.0031654
3022	0.0023154
3034	0.0018802
3046	0.0014688
3058	0.0011458
3070	0.0009384
3082	0.0008296
3094	0.0007446
3106	0.0006732
3118	0.0005542
3130	0.0005338
3142	0.0004522
3154	0.0004114
3166	0.0003298
3178	0.0003604
3190	0.0003638
3202	0.0002924
3214	0.0002482
3226	0.000187
3238	0.000187
3250	0.0001836
3262	0.000119
3274	0.0001462
3286	0.0001054
3298	9.86e-05
3310	9.52e-05
3322	0.0001394
3334	9.52e-05
3346	0.0001292
3358	0.0001326
3370	0.000102
3382	0.0001054
3394	0.0001122
3406	0.0001224
3418	7.82e-05
3430	6.12e-05
3442	0.0001292
3454	4.42e-05
3466	2.04e-05
3478	9.52e-05
3490	5.1e-05
3502	7.82e-05
3514	8.16e-05
3526	5.78e-05
3538	9.18e-05
3550	5.1e-05
3562	6.8e-05
3574	3.74e-05
3586	6.46e-05
3598	5.1e-05
3610	9.18e-05
3622	3.74e-05
3634	9.86e-05
3646	0.0001054
3658	9.18e-05
3670	8.84e-05
3682	8.16e-05
3694	7.48e-05
3706	6.12e-05
3718	8.16e-05
3730	9.52e-05
3742	9.52e-05
3754	0.0001054
3766	5.1e-05
3778	0.0001156
3790	0.0001632
3802	0.000102
3814	8.84e-05
3826	9.18e-05
3838	0.0001292
