Infrared Spectrum: 4,4-Dimethyl-2-pentyne
Formula: C 7 H 12
CAS: 999-78-0
State: gas
Instrument: HP-GC/MS/IRD
Origin: NIST Mass Spectrometry Data Center
1/CM	ABSORBANCE
550	0.0013761
562	0.0006864
574	0.0003795
586	0.0002343
598	0.0002079
610	0.0003399
622	0.0003069
634	0.000462
646	0.0005973
658	0.0005907
670	0.0002673
682	0.0001881
694	8.58e-05
706	0.0001551
718	0.0001848
730	0.0002145
742	0.0001551
754	0.0001947
766	0.0001914
778	9.9e-05
790	0.0002244
802	0.0001683
814	0.0001815
826	0.0001254
838	0.0001584
850	9.9e-05
862	9.24e-05
874	6.93e-05
886	6.6e-05
898	0.0001287
910	0.000132
922	0.000198
934	0.0001947
946	0.0001287
958	7.59e-05
970	6.6e-05
982	0.0001056
994	8.25e-05
1006	0.000132
1018	0.0001782
1030	0.0002145
1042	0.0005676
1054	0.0007788
1066	0.0006303
1078	0.0002013
1090	0.0001848
1102	0.0001617
1114	0.0002178
1126	0.0001287
1138	0.0002046
1150	0.0003234
1162	0.0004917
1174	0.0007227
1186	0.0017688
1198	0.0033627
1210	0.0029172
1222	0.0012804
1234	0.0010065
1246	0.001815
1258	0.0050589
1270	0.0067716
1282	0.0044451
1294	0.0014718
1306	0.0009537
1318	0.0009009
1330	0.0010857
1342	0.0016335
1354	0.0031317
1366	0.0046926
1378	0.0042405
1390	0.0025575
1402	0.0014685
1414	0.001122
1426	0.001188
1438	0.0016929
1450	0.0028809
1462	0.0037653
1474	0.0034386
1486	0.0025542
1498	0.0015114
1510	0.000891
1522	0.0006435
1534	0.0005313
1546	0.0006072
1558	0.0004422
1570	0.0003795
1582	0.0004026
1594	0.0003333
1606	0.0003135
1618	0.0002376
1630	0.0002079
1642	0.0001353
1654	0.000132
1666	0.0001584
1678	0.0001518
1690	0.0001386
1702	0.0001353
1714	0.0001782
1726	0.0001683
1738	0.0001386
1750	0.0001452
1762	0.0001386
1774	0.0001287
1786	0.0001254
1798	9.24e-05
1810	0.0001188
1822	0.0001419
1834	0.0001023
1846	9.24e-05
1858	0.0001089
1870	0.0001023
1882	9.9e-05
1894	0.0001089
1906	9.57e-05
1918	7.92e-05
1930	0.0001254
1942	9.24e-05
1954	6.27e-05
1966	3.96e-05
1978	4.62e-05
1990	5.94e-05
2002	7.26e-05
2014	4.62e-05
2026	6.93e-05
2038	7.92e-05
2050	0.0001287
2062	0.0001353
2074	9.57e-05
2086	6.27e-05
2098	3.96e-05
2110	3.3e-05
2122	8.25e-05
2134	5.28e-05
2146	5.61e-05
2158	1.98e-05
2170	4.29e-05
2182	8.25e-05
2194	9.24e-05
2206	6.93e-05
2218	5.28e-05
2230	2.64e-05
2242	1.98e-05
2254	5.28e-05
2266	3.3e-05
2278	8.58e-05
2290	7.59e-05
2302	3.96e-05
2314	2.31e-05
2326	3.3e-06
2338	3.3e-06
2350	3.96e-05
2362	3.3e-06
2374	3.3e-05
2386	7.92e-05
2398	9.57e-05
2410	0.0001023
2422	9.24e-05
2434	0.0001419
2446	0.0001155
2458	9.57e-05
2470	6.6e-05
2482	7.26e-05
2494	7.92e-05
2506	0.0001089
2518	0.0001056
2530	6.27e-05
2542	6.27e-05
2554	0.0001023
2566	0.0001254
2578	9.9e-05
2590	9.57e-05
2602	0.0001122
2614	9.9e-05
2626	0.0001122
2638	0.0001353
2650	0.0001551
2662	0.0001716
2674	0.0001254
2686	0.0001485
2698	0.0002277
2710	0.0003102
2722	0.0004488
2734	0.0004521
2746	0.0006006
2758	0.0005511
2770	0.0004092
2782	0.0004455
2794	0.0004587
2806	0.0005907
2818	0.000825
2830	0.0010956
2842	0.0016929
2854	0.0034782
2866	0.007656
2878	0.009735
2890	0.0085668
2902	0.0091806
2914	0.0117612
2926	0.0161403
2938	0.0168663
2950	0.0167475
2962	0.0253209
2974	0.033
2986	0.0230307
2998	0.0082203
3010	0.0029634
3022	0.0016401
3034	0.0014619
3046	0.0010725
3058	0.0009867
3070	0.0008943
3082	0.0009075
3094	0.0007425
3106	0.0005643
3118	0.0004719
3130	0.0003861
3142	0.0003498
3154	0.0003003
3166	0.0003696
3178	0.000396
3190	0.0003927
3202	0.0003762
3214	0.000396
3226	0.0004422
3238	0.0003993
3250	0.0004323
3262	0.0003135
3274	0.0002277
3286	0.0001914
3298	0.0002178
3310	0.0001947
3322	0.0002112
3334	0.0002706
3346	0.0002244
3358	0.0001947
3370	7.92e-05
3382	8.58e-05
3394	4.29e-05
3406	3.3e-06
3418	5.94e-05
3430	0.0001056
3442	5.28e-05
3454	8.91e-05
3466	9.24e-05
3478	4.29e-05
3490	0.0001254
3502	7.26e-05
3514	0.000165
3526	0.0001254
3538	6.6e-05
3550	5.94e-05
3562	7.92e-05
3574	7.92e-05
3586	6.27e-05
3598	9.9e-05
3610	0.0001056
3622	0.0001155
3634	0.0001122
3646	8.25e-05
3658	6.6e-06
3670	2.64e-05
3682	2.97e-05
3694	0.0001089
3706	5.61e-05
3718	4.62e-05
3730	3.3e-06
3742	3.3e-05
3754	1.32e-05
3766	5.94e-05
3778	4.29e-05
3790	3.96e-05
3802	8.25e-05
3814	6.93e-05
3826	4.29e-05
3838	0.0001188
