Infrared Spectrum: 2,6-Methano-1,4(2H)-benzoxazocin, 4(3H)-cyclopropyl-6(5H)-phenyl-
Formula: C20 H21 N O
CAS: 99926-14-4
State: SOLUTION 7% (CS2 FOR 7.5-15 microns, AND CCl4 FOR 2.5-7.5 microns)
Class: COBLENTZ III
Instrument: PERKIN-ELMER 21 (GRATING)
Instrument parameters: FILTER AT ABOUT 10 MICRONS
Path length: 0.01 CM
Resolution: 2
Origin: ABBOTT LABORATORIES
1/CM	TRANSMITTANCE
667	0.8041
676	0.7868
685	0.7597
694	0.3206
703	0.6939
712	0.7789
721	0.7856
730	0.7431
739	0.5803
748	0.0387
757	0.3114
766	0.7145
775	0.6685
784	0.6008
793	0.7594
802	0.7773
811	0.7699
820	0.6748
829	0.6626
838	0.7326
847	0.4977
856	0.7197
865	0.7649
874	0.7565
883	0.6646
892	0.6912
901	0.7033
910	0.7108
919	0.7166
928	0.7266
937	0.7125
946	0.5061
955	0.7012
964	0.7433
973	0.7442
982	0.6943
991	0.6815
1000	0.5286
1009	0.5206
1018	0.4766
1027	0.6486
1036	0.4014
1045	0.7145
1054	0.7357
1063	0.5679
1072	0.7012
1081	0.749
1090	0.7143
1099	0.7114
1108	0.7039
1117	0.5494
1126	0.6616
1135	0.7402
1144	0.6746
1153	0.638
1162	0.4926
1171	0.5975
1180	0.5404
1189	0.665
1198	0.616
1207	0.4559
1216	0.1004
1225	0.31
1234	0.324
1243	0.4603
1252	0.3171
1261	0.636
1270	0.6671
1279	0.5886
1288	0.4127
1297	0.4496
1306	0.6069
1315	0.732
1324	0.7126
1333	0.7767
1342	0.7468
1351	0.5802
1360	0.4641
1369	0.5185
1378	0.6508
1387	0.8112
1396	0.8128
1405	0.7765
1414	0.795
1423	0.7855
1432	0.5902
1441	0.4393
1450	0.2814
1459	0.6052
1468	0.6805
1477	0.4211
1486	0.4029
1495	0.5743
1504	0.8081
1513	0.8425
1522	0.8521
1531	0.8536
1540	0.8529
1549	0.8501
1558	0.8285
1567	0.8027
1576	0.6493
1585	0.58
1594	0.6966
1603	0.6083
1612	0.7745
1621	0.8386
1630	0.8533
1639	0.8566
1648	0.8568
1657	0.8557
1666	0.8536
1675	0.8529
1684	0.8534
1693	0.8556
1702	0.8622
1711	0.8689
1720	0.8715
1729	0.8719
1738	0.8709
1747	0.8696
1756	0.8671
1765	0.8642
1774	0.8596
1783	0.8551
1792	0.8539
1801	0.8566
1810	0.8617
1819	0.8689
1828	0.8743
1837	0.8752
1846	0.873
1855	0.8698
1864	0.8661
1873	0.8629
1882	0.8601
1891	0.8585
1900	0.8626
1909	0.8657
1918	0.8638
1927	0.8638
1936	0.8665
1945	0.8701
1954	0.8737
1963	0.8798
1972	0.8829
1981	0.8846
1990	0.8862
1999	0.8866
2008	0.8862
2017	0.8857
2026	0.8857
2035	0.8857
2044	0.8857
2053	0.8859
2062	0.8864
2071	0.8875
2080	0.8887
2089	0.8899
2098	0.8919
2107	0.8939
2116	0.8958
2125	0.8972
2134	0.8983
2143	0.8992
2152	0.8998
2161	0.8998
2170	0.8996
2179	0.8986
2188	0.8973
2197	0.8959
2206	0.8945
2215	0.8934
2224	0.8923
2233	0.891
2242	0.8897
2251	0.8884
2260	0.8869
2269	0.8854
2278	0.8839
2287	0.8829
2296	0.8818
2305	0.8811
2314	0.8806
2323	0.8803
2332	0.88
2341	0.8791
2350	0.8783
2359	0.8775
2368	0.8767
2377	0.876
2386	0.8754
2395	0.8747
2404	0.8741
2413	0.8738
2422	0.8735
2431	0.8731
2440	0.8725
2449	0.872
2458	0.8719
2467	0.8713
2476	0.87
2485	0.8684
2494	0.8658
2503	0.8633
2512	0.8608
2521	0.8583
2530	0.8559
2539	0.8537
2548	0.8514
2557	0.8491
2566	0.8467
2575	0.8443
2584	0.8419
2593	0.8392
2602	0.8362
2611	0.8333
2620	0.8299
2629	0.8261
2638	0.8224
2647	0.8184
2656	0.8143
2665	0.8091
2674	0.8034
2683	0.796
2692	0.7837
2701	0.7691
2710	0.7585
2719	0.7471
2728	0.7306
2737	0.7054
2746	0.66
2755	0.6176
2764	0.5738
2773	0.5302
2782	0.4917
2791	0.4914
2800	0.5413
2809	0.6071
2818	0.6726
2827	0.7376
2836	0.7926
2845	0.7936
2854	0.7894
2863	0.7785
2872	0.7395
2881	0.6972
2890	0.6553
2899	0.6135
2908	0.576
2917	0.5521
2926	0.53
2935	0.508
2944	0.5005
2953	0.501
2962	0.5491
2971	0.6436
2980	0.737
2989	0.7619
2998	0.7562
3007	0.7277
3016	0.6995
3025	0.688
3034	0.6883
3043	0.6898
3052	0.6926
3061	0.6959
3070	0.6997
3079	0.7037
3088	0.7078
3097	0.7386
3106	0.7825
3115	0.8453
3124	0.8588
3133	0.8687
3142	0.874
3151	0.8781
3160	0.8807
3169	0.8819
3178	0.8831
3187	0.8834
3196	0.8836
3205	0.8838
3214	0.8841
3223	0.8842
3232	0.8843
3241	0.8844
3250	0.8845
3259	0.8846
3268	0.8849
3277	0.8851
3286	0.8853
3295	0.8854
3304	0.8856
3313	0.8858
3322	0.8861
3331	0.8864
3340	0.8868
3349	0.8872
3358	0.8876
3367	0.8879
3376	0.8883
3385	0.8888
3394	0.8893
3403	0.8897
3412	0.8902
3421	0.8906
3430	0.8911
3439	0.8916
3448	0.892
3457	0.8925
3466	0.893
3475	0.8935
3484	0.8939
3493	0.8942
3502	0.8944
3511	0.8945
3520	0.8947
3529	0.8949
3538	0.8949
3547	0.8944
3556	0.894
3565	0.8935
3574	0.8931
3583	0.8926
3592	0.892
3601	0.8915
3610	0.891
3619	0.8905
3628	0.8904
3637	0.8901
3646	0.8898
3655	0.8896
3664	0.8894
3673	0.8894
3682	0.8895
3691	0.8896
3700	0.8897
3709	0.8897
3718	0.8898
3727	0.8899
3736	0.89
3745	0.8901
3754	0.8903
3763	0.8904
3772	0.8906
3781	0.8906
3790	0.8908
3799	0.8909
3808	0.8911
3817	0.8912
3826	0.8913
3835	0.8915
3844	0.8916
3853	0.8917
3862	0.8918
3871	0.892
3880	0.8921
3889	0.8922
3898	0.8922
3907	0.8921
3916	0.8921
3925	0.892
3934	0.892
3943	0.892
3952	0.892
3961	0.8919
3970	0.8919
3979	0.8919
3988	0.8918
3997	0.8918
