Infrared Spectrum: 2-Ethoxycarbonylphenyl isothiocyanate
Formula: C 10 H 9 N O 2 S
CAS: 99960-09-5
State: gas
Origin: EPA-IR VAPOR PHASE LIBRARY
1/CM	ABSORBANCE
549.8	0.009495
559.445	0.009955
569.09	0.008715
578.734	0.007105
588.379	0.005805
598.024	0.004115
607.669	0.003275
617.313	0.002175
626.958	0.002425
636.603	0.002875
646.248	0.006495
655.893	0.006535
665.537	0.003285
675.182	0.004295
684.827	0.009385
694.472	0.018665
704.116	0.028205
713.761	0.022845
723.406	0.009555
733.051	0.007305
742.695	0.036365
752.34	0.100205
761.985	0.034185
771.63	0.007965
781.275	0.006315
790.919	0.007095
800.564	0.006515
810.209	0.004115
819.854	0.003275
829.498	0.004115
839.143	0.006205
848.788	0.008665
858.433	0.008945
868.078	0.009435
877.722	0.006245
887.367	0.003615
897.012	0.003605
906.657	0.005265
916.301	0.008095
925.946	0.013395
935.591	0.027555
945.236	0.037585
954.88	0.023795
964.525	0.011715
974.17	0.007645
983.815	0.006935
993.46	0.008145
1003.1	0.011835
1012.75	0.015315
1022.39	0.013925
1032.04	0.018565
1041.68	0.031165
1051.33	0.021135
1060.97	0.017245
1070.62	0.040055
1080.26	0.080765
1089.91	0.083775
1099.55	0.056435
1109.2	0.038025
1118.84	0.060255
1128.49	0.087585
1138.13	0.059325
1147.78	0.027785
1157.42	0.026635
1167.07	0.024235
1176.71	0.017005
1186.36	0.012955
1196	0.012055
1205.64	0.013955
1215.29	0.017805
1224.93	0.031225
1234.58	0.069065
1244.22	0.138375
1253.87	0.131005
1263.51	0.071685
1273.16	0.089995
1282.8	0.142195
1292.45	0.161755
1302.09	0.093135
1311.74	0.038225
1321.38	0.018735
1331.03	0.010775
1340.67	0.007585
1350.32	0.007245
1359.96	0.012655
1369.61	0.022425
1379.25	0.014475
1388.9	0.010085
1398.54	0.009535
1408.18	0.008505
1417.83	0.008165
1427.47	0.010585
1437.12	0.022315
1446.76	0.044425
1456.41	0.033275
1466.05	0.024135
1475.7	0.041315
1485.34	0.049615
1494.99	0.024265
1504.63	0.010895
1514.28	0.006805
1523.92	0.005575
1533.57	0.005405
1543.21	0.005965
1552.86	0.008245
1562.5	0.015055
1572.15	0.026635
1581.79	0.029685
1591.44	0.039085
1601.08	0.041455
1610.73	0.018875
1620.37	0.009855
1630.01	0.006955
1639.66	0.005545
1649.3	0.005465
1658.95	0.005615
1668.59	0.006135
1678.24	0.007715
1687.88	0.011275
1697.53	0.017535
1707.17	0.027875
1716.82	0.050635
1726.46	0.109145
1736.11	0.175195
1745.75	0.140995
1755.4	0.080275
1765.04	0.040925
1774.69	0.021045
1784.33	0.012335
1793.98	0.008735
1803.62	0.007085
1813.27	0.006645
1822.91	0.006305
1832.55	0.005725
1842.2	0.005915
1851.84	0.006145
1861.49	0.006275
1871.13	0.006825
1880.78	0.007605
1890.42	0.008075
1900.07	0.008575
1909.71	0.009085
1919.36	0.011025
1929	0.013985
1938.65	0.017005
1948.29	0.022355
1957.94	0.029395
1967.58	0.036725
1977.23	0.048385
1986.87	0.064125
1996.52	0.084525
2006.16	0.111605
2015.81	0.147105
2025.45	0.191045
2035.1	0.241055
2044.74	0.295125
2054.38	0.346605
2064.03	0.379345
2073.67	0.382525
2083.32	0.367135
2092.96	0.350085
2102.61	0.326145
2112.25	0.281765
2121.9	0.219405
2131.54	0.161565
2141.19	0.123325
2150.83	0.099975
2160.48	0.080615
2170.12	0.063385
2179.77	0.052135
2189.41	0.047335
2199.06	0.041855
2208.7	0.030585
2218.35	0.020765
2227.99	0.015335
2237.64	0.011675
2247.28	0.008665
2256.92	0.006465
2266.57	0.004965
2276.21	0.004145
2285.86	0.003745
2295.5	0.003425
2305.15	0.003225
2314.79	0.003365
2324.44	0.003695
2334.08	0.003755
2343.73	0.003985
2353.37	0.003805
2363.02	0.003485
2372.66	0.003475
2382.31	0.003555
2391.95	0.003525
2401.6	0.003365
2411.24	0.003255
2420.89	0.003055
2430.53	0.002925
2440.18	0.002835
2449.82	0.002885
2459.47	0.003175
2469.11	0.003585
2478.75	0.004295
2488.4	0.005055
2498.04	0.005745
2507.69	0.005675
2517.33	0.005385
2526.98	0.005225
2536.62	0.005275
2546.27	0.005165
2555.91	0.004965
2565.56	0.005205
2575.2	0.005595
2584.85	0.005825
2594.49	0.005725
2604.14	0.005025
2613.78	0.004045
2623.43	0.003175
2633.07	0.002365
2642.72	0.001755
2652.36	0.001635
2662.01	0.001425
2671.65	0.001445
2681.29	0.0013331
2690.94	0.001475
2700.58	0.001585
2710.23	0.001895
2719.87	0.002315
2729.52	0.002725
2739.16	0.003085
2748.81	0.003265
2758.45	0.003765
2768.1	0.004125
2777.74	0.004145
2787.39	0.003955
2797.03	0.003485
2806.68	0.003195
2816.32	0.003045
2825.97	0.002975
2835.61	0.002855
2845.26	0.002655
2854.9	0.002895
2864.55	0.003555
2874.19	0.004665
2883.84	0.006645
2893.48	0.006935
2903.12	0.007355
2912.77	0.008435
2922.41	0.008495
2932.06	0.010485
2941.7	0.016415
2951.35	0.015965
2960.99	0.013935
2970.64	0.018635
2980.28	0.029525
2989.93	0.033485
2999.57	0.021895
3009.22	0.015555
3018.86	0.010585
3028.51	0.008365
3038.15	0.007165
3047.8	0.005975
3057.44	0.005965
3067.09	0.009955
3076.73	0.017685
3086.38	0.014195
3096.02	0.005225
3105.67	0.003315
3115.31	0.002375
3124.95	0.001835
3134.6	0.001715
3144.24	0.001805
3153.89	0.0012861
3163.53	0.0010503
3173.18	0.0007515
3182.82	0.0008247
3192.47	0.0006026
3202.11	0.0005128
3211.76	0.0004957
3221.4	0.000311
3231.05	0.00038655
3240.69	0.00037538
3250.34	0.000185
3259.98	0.00022
3269.63	9.6e-05
3279.27	0.0003022
3288.92	8.5e-05
3298.56	0.000174
3308.21	0.000161
3317.85	0.000245
3327.49	0.00023
3337.14	0.00040765
3346.78	0.000261
3356.43	0.00042122
3366.07	0.0003463
3375.72	0.00043349
3385.36	0.0003257
3395.01	0.00040641
3404.65	0.00036836
3414.3	0.000375793
3423.94	0.0006581
3433.59	0.0010061
3443.23	0.0012262
3452.88	0.001395
3462.52	0.001375
3472.17	0.001465
3481.81	0.0011013
3491.46	0.0007687
3501.1	0.0005889
3510.75	0.0005947
3520.39	0.0004582
3530.04	0.00036584
3539.68	0.000235
3549.32	0.0002755
3558.97	0.0003032
3568.61	0.000181
3578.26	0.0002873
3587.9	0.0003641
3597.55	0.00047118
3607.19	0.000177
3616.84	0.0003526
3626.48	0.000189
3636.13	0.0002937
3645.77	0.000236
3655.42	0
3665.06	0.000222
3674.71	0.0003251
3684.35	0.00027
3694	0.00044638
3703.64	0.000212
3713.29	0.000239
3722.93	0.000229
3732.58	0.00042106
3742.22	0.000269
3751.86	0.000601
3761.51	0.0002954
3771.15	0.00045481
3780.8	0.0006077
3790.44	0.0005887
3800.09	0.00045437
3809.73	0.00047215
3819.38	0.0003608
3829.02	0.0003456
3838.67	0.000536
3848.31	0.0004843
3857.96	0.00045903
3867.6	0.00041771
3877.25	0.0005803
3886.89	0.0006136
3896.54	0.000713
3906.18	0.0005738
3915.83	0.000535
3925.47	0.0006774
3935.12	0.0007299
3944.76	0.0009074
3954.41	0.0007229
3964.05	0.001052
3973.69	0.0013356
3983.34	0.0010325
3992.98	0.0013485
