Infrared Spectrum: KETONE, 5-AMINO-4-NITRO-2-THIENYL-3,4-DICHLOROPHENYL
Formula: C11 H6 Cl2 N2 O3 S
CAS: 99971-81-0
State: SOLID (PELLET)
Class: COBLENTZ
Instrument: Not specified, most likely a prism, grating, or hybrid spectrometer.
Sampling: TRANSMISSION
Resolution: 4
Origin: TENNESSEE EASTMAN COMPANY, RESEARCH LABORATORIES
MICROMETERS	TRANSMITTANCE
2.047	0.646
2.087	0.651
2.127	0.657
2.167	0.662
2.207	0.671
2.24699	0.677
2.28699	0.681
2.32699	0.687
2.36699	0.691
2.40699	0.696
2.44699	0.7
2.48699	0.704
2.52699	0.707
2.56699	0.709
2.60699	0.714
2.64698	0.715
2.68698	0.724
2.72698	0.696
2.76698	0.566
2.80698	0.485
2.84698	0.428
2.88698	0.342
2.92698	0.323
2.96698	0.367
3.00697	0.295
3.04697	0.468
3.08697	0.508
3.12697	0.566
3.16697	0.574
3.20697	0.551
3.24697	0.581
3.28697	0.676
3.32697	0.717
3.36697	0.727
3.40696	0.715
3.44696	0.734
3.48696	0.739
3.52696	0.767
3.56696	0.777
3.60696	0.784
3.64696	0.782
3.68696	0.784
3.72696	0.787
3.76695	0.79
3.80695	0.8
3.84695	0.808
3.88695	0.81
3.92695	0.807
3.96695	0.81
4.00695	0.815
4.04695	0.818
4.08695	0.818
4.12695	0.822
4.16694	0.822
4.20694	0.83
4.24694	0.847
4.28694	0.848
4.32694	0.845
4.36694	0.84
4.40694	0.842
4.44694	0.845
4.48694	0.845
4.52693	0.848
4.56693	0.85
4.60693	0.85
4.64693	0.85
4.68693	0.848
4.72693	0.848
4.76693	0.85
4.80693	0.852
4.84693	0.85
4.88693	0.85
4.92692	0.85
4.96692	0.852
5.00692	0.862
5.04692	0.863
5.08692	0.862
5.12692	0.863
5.16692	0.863
5.20692	0.863
5.24692	0.87
5.28692	0.872
5.32691	0.878
5.36691	0.878
5.40691	0.88
5.44691	0.878
5.48691	0.875
5.52691	0.872
5.56691	0.865
5.60691	0.863
5.64691	0.863
5.6869	0.86
5.7269	0.843
5.7669	0.835
5.8069	0.835
5.8469	0.818
5.8869	0.812
5.9269	0.8
5.9669	0.769
6.0069	0.704
6.0469	0.631
6.08689	0.508
6.12689	0.401
6.16689	0.3
6.20689	0.254
6.24689	0.219
6.28689	0.22
6.32689	0.353
6.36689	0.612
6.40689	0.495
6.44688	0.3
6.48688	0.141
6.52688	0.144
6.56688	0.182
6.60688	0.362
6.64688	0.566
6.68688	0.676
6.72688	0.71
6.76688	0.699
6.80688	0.586
6.84687	0.543
6.88687	0.463
6.92687	0.579
6.96687	0.617
7.00687	0.689
7.04687	0.696
7.08687	0.543
7.12687	0.247
7.16687	0.242
7.20686	0.265
7.24686	0.149
7.28686	0.277
7.32686	0.468
7.36686	0.646
7.40686	0.682
7.44686	0.617
7.48686	0.358
7.52686	0.425
7.56686	0.556
7.60685	0.514
7.64685	0.382
7.68685	0.202
7.72685	0.149
7.76685	0.152
7.80685	0.152
7.84685	0.174
7.88685	0.225
7.92685	0.325
7.96684	0.392
8.00684	0.26
8.04684	0.35
8.08684	0.47
8.12684	0.553
8.16684	0.622
8.20684	0.664
8.24684	0.669
8.28684	0.664
8.32684	0.691
8.36683	0.722
8.40683	0.734
8.44683	0.734
8.48683	0.725
8.52683	0.672
8.56683	0.657
8.60683	0.639
8.64683	0.596
8.68683	0.599
8.72682	0.654
8.76682	0.672
8.80682	0.681
8.84682	0.689
8.88682	0.725
8.92682	0.737
8.96682	0.735
9.00682	0.729
9.04682	0.704
9.08682	0.642
9.12681	0.617
9.16681	0.621
9.20681	0.659
9.24681	0.705
9.28681	0.739
9.32681	0.749
9.36681	0.742
9.40681	0.722
9.44681	0.725
9.4868	0.759
9.5268	0.775
9.5668	0.779
9.6068	0.752
9.6468	0.616
9.6868	0.539
9.7268	0.677
9.7668	0.745
9.8068	0.777
9.8468	0.787
9.88679	0.797
9.92679	0.802
9.96679	0.802
10.0068	0.815
10.0468	0.82
10.0868	0.823
10.1268	0.828
10.1668	0.832
10.2068	0.833
10.2468	0.832
10.2868	0.83
10.3268	0.83
10.3668	0.832
10.4068	0.832
10.4468	0.832
10.4868	0.832
10.5268	0.832
10.5668	0.838
10.6068	0.848
10.6468	0.845
10.6868	0.847
10.7268	0.852
10.7668	0.857
10.8068	0.857
10.8468	0.857
10.8868	0.843
10.9268	0.794
10.9668	0.737
11.0068	0.71
11.0468	0.702
11.0868	0.702
11.1268	0.682
11.1668	0.714
11.2068	0.739
11.2468	0.724
11.2868	0.712
11.3268	0.717
11.3668	0.739
11.4068	0.772
11.4468	0.799
11.4868	0.822
11.5268	0.842
11.5668	0.86
11.6067	0.878
11.6467	0.885
11.6867	0.888
11.7267	0.888
11.7667	0.888
11.8067	0.883
11.8467	0.85
11.8867	0.779
11.9267	0.732
11.9667	0.784
12.0067	0.83
12.0467	0.848
12.0867	0.872
12.1267	0.892
12.1667	0.898
12.2067	0.906
12.2467	0.911
12.2867	0.913
12.3267	0.915
12.3667	0.916
12.4067	0.918
12.4467	0.918
12.4867	0.916
12.5267	0.916
12.5667	0.916
12.6067	0.915
12.6467	0.908
12.6867	0.88
12.7267	0.852
12.7667	0.82
12.8067	0.817
12.8467	0.84
12.8867	0.855
12.9267	0.857
12.9667	0.805
13.0067	0.735
13.0467	0.674
13.0867	0.657
13.1267	0.662
13.1667	0.73
13.2067	0.772
13.2467	0.779
13.2867	0.779
13.3267	0.71
13.3667	0.521
13.4067	0.441
13.4467	0.45
13.4867	0.481
13.5267	0.591
13.5667	0.705
13.6067	0.762
13.6467	0.797
13.6867	0.822
13.7267	0.83
13.7667	0.822
13.8067	0.808
13.8467	0.828
13.8867	0.852
13.9267	0.86
13.9667	0.86
14.0067	0.845
14.0467	0.774
14.0867	0.661
14.1267	0.588
14.1667	0.584
14.2067	0.677
14.2467	0.764
14.2867	0.8
14.3267	0.828
14.3667	0.848
14.4067	0.857
14.4467	0.858
14.4867	0.862
14.5267	0.868
14.5667	0.878
14.6067	0.888
14.6467	0.892
14.6867	0.897
14.7267	0.901
14.7667	0.901
14.8067	0.888
14.8467	0.875
14.8867	0.867
14.9267	0.858
14.9667	0.857
15.0067	0.86
15.0467	0.89
15.0867	0.9
15.1267	0.905
15.1667	0.905
15.2067	0.905
15.2467	0.903
15.2867	0.903
15.3267	0.903
15.3667	0.903
15.4066	0.9
15.4466	0.898
15.4866	0.897
15.5266	0.89
15.5666	0.877
15.6066	0.878
15.6466	0.877
15.6866	0.875
15.7266	0.877
15.7666	0.873
15.8066	0.87
15.8466	0.867
15.8866	0.86
15.9266	0.852
15.9666	0.845
16.0066	0.845
