Infrared Spectrum: Imidazole, 4-nitro-5-(propylsulfonyl)-
Formula: C6 H9 N3 O4 S
CAS: 99980-28-6
State: SOLID (1 mg / 650 mg KBr DISC)
Class: COBLENTZ III
Instrument: PERKIN-ELMER 21 (GRATING)
Instrument parameters: FILTER CHANGE ABOUT 1025 CM^-^1
Sampling: TRANSMISSION
Resolution: 2
Origin: SOUTHERN RESEARCH INSTITUTE
1/CM	TRANSMITTANCE
601.566	0.8043
610.604	0.7998
619.642	0.793
628.681	0.7825
637.719	0.7495
646.757	0.711
655.795	0.6401
664.833	0.7096
673.871	0.8127
682.91	0.8159
691.948	0.8103
700.986	0.7959
710.024	0.7429
719.062	0.6954
728.101	0.7114
737.139	0.6686
746.177	0.5941
755.215	0.7464
764.253	0.7243
773.292	0.6262
782.33	0.7346
791.368	0.8076
800.406	0.8051
809.444	0.7909
818.482	0.7616
827.521	0.6902
836.559	0.497
845.597	0.6177
854.635	0.6777
863.673	0.6178
872.712	0.5445
881.75	0.5483
890.788	0.646
899.826	0.7234
908.864	0.7045
917.902	0.6781
926.941	0.6614
935.979	0.5927
945.017	0.5205
954.055	0.4266
963.093	0.7583
972.132	0.8178
981.17	0.8214
990.208	0.8184
999.246	0.8135
1008.28	0.807
1017.32	0.7974
1026.36	0.7794
1035.4	0.7491
1044.44	0.6838
1053.48	0.5705
1062.51	0.6709
1071.55	0.6026
1080.59	0.7002
1089.63	0.6864
1098.67	0.6439
1107.7	0.6721
1116.74	0.6653
1125.78	0.5878
1134.82	0.4821
1143.86	0.2283
1152.9	0.2882
1161.93	0.5492
1170.97	0.4684
1180.01	0.6068
1189.05	0.7012
1198.09	0.6826
1207.12	0.615
1216.16	0.518
1225.2	0.3213
1234.24	0.2066
1243.28	0.564
1252.32	0.5434
1261.35	0.7284
1270.39	0.7149
1279.43	0.7554
1288.47	0.7218
1297.51	0.5994
1306.54	0.4827
1315.58	0.3564
1324.62	0.2644
1333.66	0.1377
1342.7	0.3144
1351.74	0.4197
1360.77	0.2327
1369.81	0.0877
1378.85	0.177
1387.89	0.442
1396.93	0.6313
1405.96	0.69
1415	0.6773
1424.04	0.6547
1433.08	0.5749
1442.12	0.2876
1451.16	0.3136
1460.19	0.4286
1469.23	0.4151
1478.27	0.3103
1487.31	0.3354
1496.35	0.5916
1505.38	0.5936
1514.42	0.2907
1523.46	0.3089
1532.5	0.3178
1541.54	0.4408
1550.58	0.4481
1559.61	0.4727
1568.65	0.6769
1577.69	0.7784
1586.73	0.7959
1595.77	0.7983
1604.8	0.8042
1613.84	0.8059
1622.88	0.8025
1631.92	0.8034
1640.96	0.8115
1650	0.8223
1659.03	0.8377
1668.07	0.8417
1677.11	0.8402
1686.15	0.8344
1695.19	0.8261
1704.22	0.8203
1713.26	0.8203
1722.3	0.8203
1731.34	0.8121
1740.38	0.7962
1749.42	0.7885
1758.45	0.7877
1767.49	0.7868
1776.53	0.7873
1785.57	0.788
1794.61	0.7893
1803.64	0.7912
1812.68	0.7928
1821.72	0.7937
1830.76	0.7943
1839.8	0.7953
1848.84	0.7973
1857.87	0.8013
1866.91	0.8082
1875.95	0.817
1884.99	0.8278
1894.03	0.8352
1903.06	0.8399
1912.1	0.8444
1921.14	0.8488
1930.18	0.8524
1939.22	0.8557
1948.26	0.8573
1957.29	0.859
1966.33	0.8608
1975.37	0.8626
1984.41	0.8636
1993.45	0.8641
2002.48	0.8638
2011.52	0.8626
2020.56	0.8614
2029.6	0.8603
2038.64	0.859
2047.68	0.8578
2056.71	0.8564
2065.75	0.8538
2074.79	0.8519
2083.83	0.8508
2092.87	0.8493
2101.9	0.8473
2110.94	0.8447
2119.98	0.8418
2129.02	0.8425
2138.06	0.8426
2147.1	0.8399
2156.13	0.8363
2165.17	0.834
2174.21	0.8312
2183.25	0.8277
2192.29	0.8251
2201.32	0.8222
2210.36	0.8193
2219.4	0.8163
2228.44	0.8146
2237.48	0.8138
2246.52	0.8136
2255.55	0.8122
2264.59	0.8086
2273.63	0.7985
2282.67	0.7876
2291.71	0.7728
2300.74	0.7566
2309.78	0.7363
2318.82	0.7128
2327.86	0.7034
2336.9	0.7
2345.94	0.6979
2354.97	0.6961
2364.01	0.6949
2373.05	0.6931
2382.09	0.6923
2391.13	0.6905
2400.16	0.6872
2409.2	0.6822
2418.24	0.6721
2427.28	0.6593
2436.32	0.6408
2445.36	0.6222
2454.39	0.6044
2463.43	0.5932
2472.47	0.5821
2481.51	0.5747
2490.55	0.5701
2499.58	0.5656
2508.62	0.5634
2517.66	0.5592
2526.7	0.5421
2535.74	0.5134
2544.78	0.4871
2553.81	0.4687
2562.85	0.4566
2571.89	0.451
2580.93	0.4543
2589.97	0.4514
2599	0.4541
2608.04	0.455
2617.08	0.4487
2626.12	0.4416
2635.16	0.4369
2644.2	0.4345
2653.23	0.4347
2662.27	0.4425
2671.31	0.4451
2680.35	0.4431
2689.39	0.4409
2698.42	0.4386
2707.46	0.4358
2716.5	0.4327
2725.54	0.4294
2734.58	0.4272
2743.62	0.4252
2752.65	0.4185
2761.69	0.4047
2770.73	0.3917
2779.77	0.3827
2788.81	0.3775
2797.85	0.3751
2806.88	0.3744
2815.92	0.3789
2824.96	0.3941
2834	0.4174
2843.04	0.4341
2852.07	0.4528
2861.11	0.4539
2870.15	0.4482
2879.19	0.4317
2888.23	0.4154
2897.27	0.4078
2906.3	0.4066
2915.34	0.407
2924.38	0.4091
2933.42	0.4165
2942.46	0.4243
2951.49	0.4276
2960.53	0.4265
2969.57	0.4256
2978.61	0.4266
2987.65	0.4359
2996.69	0.4461
3005.72	0.4611
3014.76	0.4859
3023.8	0.5071
3032.84	0.5269
3041.88	0.5465
3050.91	0.5609
3059.95	0.5694
3068.99	0.5773
3078.03	0.5864
3087.07	0.6005
3096.11	0.6203
3105.14	0.6418
3114.18	0.6614
3123.22	0.6718
3132.26	0.6782
3141.3	0.6821
3150.33	0.6811
3159.37	0.6784
3168.41	0.6749
3177.45	0.6747
3186.49	0.7304
3195.53	0.7683
3204.56	0.7833
3213.6	0.7856
3222.64	0.786
3231.68	0.7859
3240.72	0.7873
3249.75	0.7881
3258.79	0.7894
3267.83	0.7899
3276.87	0.785
3285.91	0.7795
3294.95	0.7753
3303.98	0.7737
3313.02	0.7719
3322.06	0.7638
3331.1	0.7512
3340.14	0.7342
3349.17	0.7207
3358.21	0.7127
3367.25	0.7056
3376.29	0.6981
3385.33	0.6903
3394.37	0.6829
3403.4	0.6776
3412.44	0.6746
3421.48	0.6728
3430.52	0.6731
3439.56	0.6722
3448.59	0.6746
3457.63	0.6762
3466.67	0.6782
3475.71	0.6801
3484.75	0.6834
3493.79	0.6868
3502.82	0.6918
3511.86	0.6969
3520.9	0.7032
3529.94	0.7112
3538.98	0.7193
3548.01	0.7272
3557.05	0.7364
3566.09	0.7467
3575.13	0.7602
3584.17	0.7725
3593.21	0.7835
3602.24	0.793
3611.28	0.8005
3620.32	0.8062
3629.36	0.8114
3638.4	0.8177
3647.43	0.8217
3656.47	0.8229
3665.51	0.824
3674.55	0.8248
3683.59	0.8257
3692.63	0.8267
3701.66	0.8275
3710.7	0.8283
3719.74	0.8292
3728.78	0.8299
3737.82	0.8301
3746.85	0.8303
3755.89	0.8296
3764.93	0.829
3773.97	0.8283
3783.01	0.8276
3792.05	0.8269
3801.08	0.8264
3810.12	0.8258
3819.16	0.8253
3828.2	0.8253
3837.24	0.8252
3846.27	0.8251
3855.31	0.825
3864.35	0.8248
3873.39	0.8246
3882.43	0.8244
3891.47	0.8245
3900.5	0.8249
3909.54	0.8252
3918.58	0.8256
3927.62	0.826
3936.66	0.8266
3945.69	0.8277
3954.73	0.8289
3963.77	0.8291
3972.81	0.8286
3981.85	0.8272
3990.89	0.8253
3999.92	0.8222
4008.96	0.8175
4018	0.8069
