Infrared Spectrum: Alpha,Alpha-DICHLOROPROPIONIC ACID, 2-(2,4-DIBROMOPHENOXY) ETHYL ESTER
Formula: C11 H10 Br2 Cl2 O3
CAS: 99983-48-9
State: SOLUTION (10% CCl4 FOR 5000-1330, 10% CS2 FOR 1330-625 CM^-^1)
Class: COBLENTZ
Instrument: Not specified, most likely a prism, grating, or hybrid spectrometer.
Sampling: TRANSMISSION
Path length: 0.0126 CM, 0.0126 CM
Resolution: 4
Origin: DOW CHEMICAL COMPANY
MICROMETERS	TRANSMITTANCE
2.021	0.898
2.06211	0.896
2.10323	0.891
2.14434	0.894
2.18545	0.893
2.22657	0.884
2.26768	0.893
2.30879	0.896
2.34991	0.891
2.39102	0.889
2.43213	0.891
2.47325	0.896
2.51436	0.898
2.55547	0.901
2.59659	0.898
2.6377	0.899
2.67881	0.894
2.71993	0.894
2.76104	0.889
2.80215	0.887
2.84327	0.879
2.88438	0.889
2.92549	0.887
2.96661	0.884
3.00772	0.886
3.04883	0.889
3.08995	0.886
3.13106	0.891
3.17217	0.886
3.21329	0.874
3.2544	0.872
3.29552	0.864
3.33663	0.792
3.37774	0.747
3.41886	0.821
3.45997	0.833
3.50108	0.877
3.5422	0.882
3.58331	0.891
3.62442	0.886
3.66554	0.893
3.70665	0.898
3.74776	0.891
3.78888	0.898
3.82999	0.898
3.8711	0.889
3.91222	0.881
3.95333	0.879
3.99444	0.891
4.03556	0.893
4.07667	0.898
4.11778	0.891
4.1589	0.887
4.20001	0.889
4.24112	0.884
4.28224	0.874
4.32335	0.87
4.36446	0.876
4.40558	0.886
4.44669	0.891
4.4878	0.896
4.52892	0.894
4.57003	0.891
4.61114	0.889
4.65226	0.887
4.69337	0.884
4.73448	0.882
4.7756	0.879
4.81671	0.887
4.85782	0.887
4.89894	0.887
4.94005	0.887
4.98116	0.886
5.02228	0.881
5.06339	0.882
5.1045	0.889
5.14562	0.886
5.18673	0.887
5.22784	0.887
5.26896	0.882
5.31007	0.879
5.35118	0.869
5.3923	0.86
5.43341	0.87
5.47452	0.859
5.51564	0.84
5.55675	0.792
5.59787	0.628
5.63898	0.317
5.68009	0.154
5.72121	0.276
5.76232	0.772
5.80343	0.809
5.84455	0.838
5.88566	0.87
5.92677	0.87
5.96789	0.877
6.009	0.869
6.05011	0.869
6.09123	0.86
6.13234	0.843
6.17345	0.796
6.21457	0.731
6.25568	0.619
6.29679	0.495
6.33791	0.482
6.37902	0.465
6.42013	0.444
6.46125	0.468
6.50236	0.57
6.54347	0.604
6.58459	0.651
6.6257	0.679
6.66681	0.65
6.70793	0.359
6.74904	0.122
6.79015	0.246
6.83127	0.349
6.87238	0.431
6.91349	0.582
6.95461	0.731
6.99572	0.73
7.03683	0.713
7.07795	0.691
7.11906	0.726
7.16017	0.694
7.20129	0.534
7.2424	0.597
7.28351	0.704
7.32463	0.789
7.36574	0.801
7.40685	0.772
7.44797	0.78
7.48908	0.792
7.53019	0.765
7.57131	0.728
7.61242	0.619
7.65353	0.49
7.69465	0.341
7.73576	0.205
7.77687	0.179
7.81799	0.202
7.8591	0.156
7.90022	0.091
7.94133	0.098
7.98244	0.1
8.02356	0.061
8.06467	0.12
8.10578	0.207
8.1469	0.41
8.18801	0.594
8.22912	0.704
8.27024	0.758
8.31135	0.779
8.35246	0.787
8.39358	0.787
8.43469	0.774
8.4758	0.758
8.51692	0.748
8.55803	0.738
8.59914	0.711
8.64026	0.65
8.68137	0.589
8.72248	0.57
8.7636	0.482
8.80471	0.325
8.84582	0.229
8.88694	0.23
8.92805	0.269
8.96916	0.283
9.01028	0.312
9.05139	0.39
9.0925	0.412
9.13362	0.376
9.17473	0.302
9.21584	0.275
9.25696	0.247
9.29807	0.179
9.33918	0.185
9.3803	0.266
9.42141	0.325
9.46252	0.395
9.50364	0.478
9.54475	0.478
9.58586	0.487
9.62698	0.584
9.66809	0.621
9.7092	0.65
9.75032	0.682
9.79143	0.719
9.83254	0.764
9.87366	0.784
9.91477	0.792
9.95588	0.799
9.997	0.789
10.0381	0.762
10.0792	0.752
10.1203	0.762
10.1615	0.777
10.2026	0.797
10.2437	0.808
10.2848	0.811
10.3259	0.808
10.367	0.808
10.4081	0.799
10.4492	0.779
10.4904	0.743
10.5315	0.713
10.5726	0.677
10.6137	0.657
10.6548	0.65
10.6959	0.651
10.737	0.665
10.7782	0.68
10.8193	0.706
10.8604	0.733
10.9015	0.745
10.9426	0.748
10.9837	0.752
11.0248	0.757
11.0659	0.76
11.1071	0.758
11.1482	0.75
11.1893	0.745
11.2304	0.741
11.2715	0.733
11.3126	0.711
11.3537	0.674
11.3949	0.609
11.436	0.477
11.4771	0.382
11.5182	0.466
11.5593	0.539
11.6004	0.568
11.6415	0.577
11.6826	0.589
11.7238	0.612
11.7649	0.646
11.806	0.685
11.8471	0.728
11.8882	0.757
11.9293	0.762
11.9704	0.764
12.0116	0.758
12.0527	0.75
12.0938	0.753
12.1349	0.758
12.176	0.757
12.2171	0.738
12.2582	0.716
12.2993	0.672
12.3405	0.634
12.3816	0.589
12.4227	0.541
12.4638	0.451
12.5049	0.325
12.546	0.298
12.5871	0.456
12.6283	0.572
12.6694	0.629
12.7105	0.66
12.7516	0.68
12.7927	0.701
12.8338	0.723
12.8749	0.738
12.916	0.748
12.9572	0.753
12.9983	0.758
13.0394	0.76
13.0805	0.764
13.1216	0.767
13.1627	0.765
13.2038	0.755
13.245	0.753
13.2861	0.747
13.3272	0.74
13.3683	0.728
13.4094	0.713
13.4505	0.687
13.4916	0.662
13.5328	0.623
13.5739	0.587
13.615	0.558
13.6561	0.546
13.6972	0.543
13.7383	0.555
13.7794	0.57
13.8205	0.58
13.8617	0.587
13.9028	0.592
13.9439	0.592
13.985	0.582
14.0261	0.567
14.0672	0.548
14.1083	0.519
14.1495	0.494
14.1906	0.466
14.2317	0.448
14.2728	0.436
14.3139	0.432
14.355	0.424
14.3961	0.426
14.4372	0.432
14.4784	0.439
14.5195	0.448
14.5606	0.449
14.6017	0.444
14.6428	0.436
14.6839	0.421
14.725	0.407
14.7662	0.397
14.8073	0.382
14.8484	0.37
14.8895	0.354
14.9306	0.337
14.9717	0.308
15.0128	0.278
15.0539	0.259
15.0951	0.241
15.1362	0.229
15.1773	0.237
15.2184	0.256
15.2595	0.276
15.3006	0.297
15.3417	0.32
15.3829	0.332
15.424	0.344
15.4651	0.349
15.5062	0.351
15.5473	0.348
15.5884	0.337
15.6295	0.322
15.6706	0.314
15.7118	0.312
15.7529	0.31
15.794	0.307
15.8351	0.31
